
     RDKit          2D

 29 32  0  0  0  0  0  0  0  0999 V2000
    6.1865    6.4289    0.0000 C   0  0  0  0  0  0  0  0  0  0  0  0
    4.7193    6.1170    0.0000 O   0  0  0  0  0  0  0  0  0  0  0  0
    4.2558    4.6904    0.0000 C   0  0  0  0  0  0  0  0  0  0  0  0
    5.2595    3.5757    0.0000 C   0  0  0  0  0  0  0  0  0  0  0  0
    4.7960    2.1491    0.0000 C   0  0  0  0  0  0  0  0  0  0  0  0
    3.3287    1.8373    0.0000 C   0  0  0  0  0  0  0  0  0  0  0  0
    2.8652    0.4107    0.0000 O   0  0  0  0  0  0  0  0  0  0  0  0
    3.8689   -0.7040    0.0000 C   0  0  0  0  0  0  0  0  0  0  0  0
    2.3250    2.9520    0.0000 C   0  0  0  0  0  0  0  0  0  0  0  0
    0.8578    2.6401    0.0000 C   0  0  0  0  0  0  0  0  0  0  0  0
    0.3943    1.2135    0.0000 C   0  0  0  0  0  0  0  0  0  0  0  0
    1.2760    0.0000    0.0000 C   0  0  0  0  0  0  0  0  0  0  0  0
    0.3943   -1.2135    0.0000 C   0  0  0  0  0  0  0  0  0  0  0  0
    0.7062   -2.6807    0.0000 C   0  0  0  0  0  0  0  0  0  0  0  0
    2.1328   -3.1443    0.0000 N   0  0  0  0  0  0  0  0  0  0  0  0
    2.4446   -4.6115    0.0000 C   0  0  0  0  0  0  0  0  0  0  0  0
    1.3299   -5.6152    0.0000 C   0  0  0  0  0  0  0  0  0  0  0  0
    1.6418   -7.0824    0.0000 C   0  0  0  0  0  0  0  0  0  0  0  0
    3.0684   -7.5459    0.0000 C   0  0  0  0  0  0  0  0  0  0  0  0
    4.1831   -6.5422    0.0000 C   0  0  0  0  0  0  0  0  0  0  0  0
    5.6097   -7.0058    0.0000 Br  0  0  0  0  0  0  0  0  0  0  0  0
    3.8712   -5.0750    0.0000 C   0  0  0  0  0  0  0  0  0  0  0  0
   -0.4086   -3.6844    0.0000 N   0  0  0  0  0  0  0  0  0  0  0  0
   -1.8351   -3.2209    0.0000 C   0  0  0  0  0  0  0  0  0  0  0  0
   -2.9499   -4.2246    0.0000 N   0  0  0  0  0  0  0  0  0  0  0  0
   -2.1470   -1.7537    0.0000 N   0  0  0  0  0  0  0  0  0  0  0  0
   -1.0323   -0.7500    0.0000 C   0  0  0  0  0  0  0  0  0  0  0  0
   -1.0323    0.7500    0.0000 N   0  0  0  0  0  0  0  0  0  0  0  0
    2.7886    4.3786    0.0000 C   0  0  0  0  0  0  0  0  0  0  0  0
  1  2  1  0
  2  3  1  0
  3  4  2  0
  4  5  1  0
  5  6  2  0
  6  7  1  0
  7  8  1  0
  6  9  1  0
  9 10  1  0
 10 11  1  0
 11 12  2  0
 12 13  1  0
 13 14  2  0
 14 15  1  0
 15 16  1  0
 16 17  2  0
 17 18  1  0
 18 19  2  0
 19 20  1  0
 20 21  1  0
 20 22  2  0
 14 23  1  0
 23 24  2  0
 24 25  1  0
 24 26  1  0
 26 27  2  0
 27 28  1  0
  9 29  2  0
 29  3  1  0
 28 11  1  0
 27 13  1  0
 22 16  1  0
M  END
>  <Molecule ChEMBL ID>  (1) 
CHEMBL1095465

>  <Smiles>  (1) 
COc1ccc(OC)c(Cc2cc3c(Nc4cccc(Br)c4)nc(N)nc3[nH]2)c1

>  <pChEMBL Value>  (1) 
4.51

>  <similarity>  (1) 
0.125

$$$$

     RDKit          2D

 95 97  0  0  0  0  0  0  0  0999 V2000
    8.1173    8.1673    0.0000 C   0  0  0  0  0  0  0  0  0  0  0  0
    6.6501    7.8555    0.0000 C   0  0  0  0  0  0  0  0  0  0  0  0
    6.1865    6.4289    0.0000 C   0  0  0  0  0  0  0  0  0  0  0  0
    4.7193    6.1170    0.0000 C   0  0  0  0  0  0  0  0  0  0  0  0
    4.2558    4.6904    0.0000 N   0  0  0  0  0  0  0  0  0  0  0  0
    2.7886    4.3786    0.0000 C   0  0  0  0  0  0  0  0  0  0  0  0
    1.7849    5.4933    0.0000 O   0  0  0  0  0  0  0  0  0  0  0  0
    2.3250    2.9520    0.0000 C   0  0  0  0  0  0  0  0  0  0  0  0
    0.8578    2.6401    0.0000 C   0  0  0  0  0  0  0  0  0  0  0  0
    0.3943    1.2135    0.0000 C   0  0  0  0  0  0  0  0  0  0  0  0
    1.2760    0.0000    0.0000 C   0  0  0  0  0  0  0  0  0  0  0  0
    0.3943   -1.2135    0.0000 N   0  0  0  0  0  0  0  0  0  0  0  0
   -1.0323   -0.7500    0.0000 C   0  0  0  0  0  0  0  0  0  0  0  0
   -1.0323    0.7500    0.0000 N   0  0  0  0  0  0  0  0  0  0  0  0
    3.3287    1.8373    0.0000 N   0  0  0  0  0  0  0  0  0  0  0  0
    4.7960    2.1491    0.0000 C   0  0  0  0  0  0  0  0  0  0  0  0
    5.2595    3.5757    0.0000 O   0  0  0  0  0  0  0  0  0  0  0  0
    5.7997    1.0344    0.0000 C   0  0  0  0  0  0  0  0  0  0  0  0
    7.2669    1.3463    0.0000 C   0  0  0  0  0  0  0  0  0  0  0  0
    8.2706    0.2316    0.0000 C   0  0  0  0  0  0  0  0  0  0  0  0
    9.7378    0.5434    0.0000 C   0  0  0  0  0  0  0  0  0  0  0  0
   10.7415   -0.5713    0.0000 N   0  0  0  0  0  0  0  0  0  0  0  0
   10.2013    1.9700    0.0000 O   0  0  0  0  0  0  0  0  0  0  0  0
    5.3361   -0.3922    0.0000 N   0  0  0  0  0  0  0  0  0  0  0  0
    6.3398   -1.5069    0.0000 C   0  0  0  0  0  0  0  0  0  0  0  0
    7.8071   -1.1950    0.0000 O   0  0  0  0  0  0  0  0  0  0  0  0
    5.8763   -2.9335    0.0000 C   0  0  0  0  0  0  0  0  0  0  0  0
    6.8800   -4.0482    0.0000 N   0  0  0  0  0  0  0  0  0  0  0  0
    6.4165   -5.4748    0.0000 C   0  0  0  0  0  0  0  0  0  0  0  0
    4.9493   -5.7866    0.0000 O   0  0  0  0  0  0  0  0  0  0  0  0
    7.4202   -6.5895    0.0000 C   0  0  0  0  0  0  0  0  0  0  0  0
    6.9566   -8.0161    0.0000 C   0  0  0  0  0  0  0  0  0  0  0  0
    7.9603   -9.1308    0.0000 C   0  0  0  0  0  0  0  0  0  0  0  0
    7.4968  -10.5574    0.0000 C   0  0  0  0  0  0  0  0  0  0  0  0
    8.5005  -11.6721    0.0000 N   0  0  0  0  0  0  0  0  0  0  0  0
    6.0296  -10.8692    0.0000 O   0  0  0  0  0  0  0  0  0  0  0  0
    8.8874   -6.2776    0.0000 N   0  0  0  0  0  0  0  0  0  0  0  0
    9.8911   -7.3923    0.0000 C   0  0  0  0  0  0  0  0  0  0  0  0
    9.4276   -8.8189    0.0000 O   0  0  0  0  0  0  0  0  0  0  0  0
   11.3583   -7.0805    0.0000 C   0  0  0  0  0  0  0  0  0  0  0  0
   12.3620   -8.1952    0.0000 C   0  0  0  0  0  0  0  0  0  0  0  0
   11.8985   -9.6218    0.0000 C   0  0  0  0  0  0  0  0  0  0  0  0
   10.4719  -10.0853    0.0000 C   0  0  0  0  0  0  0  0  0  0  0  0
   10.4719  -11.5853    0.0000 N   0  0  0  0  0  0  0  0  0  0  0  0
   11.8985  -12.0488    0.0000 C   0  0  0  0  0  0  0  0  0  0  0  0
   12.7802  -10.8353    0.0000 N   0  0  0  0  0  0  0  0  0  0  0  0
   11.8218   -5.6539    0.0000 N   0  0  0  0  0  0  0  0  0  0  0  0
   13.2891   -5.3420    0.0000 C   0  0  0  0  0  0  0  0  0  0  0  0
   14.2928   -6.4567    0.0000 O   0  0  0  0  0  0  0  0  0  0  0  0
   13.7526   -3.9154    0.0000 C   0  0  0  0  0  0  0  0  0  0  0  0
   12.8709   -2.7019    0.0000 C   0  0  0  0  0  0  0  0  0  0  0  0
   13.7526   -1.4884    0.0000 C   0  0  0  0  0  0  0  0  0  0  0  0
   15.1792   -1.9519    0.0000 C   0  0  0  0  0  0  0  0  0  0  0  0
   15.1792   -3.4519    0.0000 N   0  0  0  0  0  0  0  0  0  0  0  0
   16.3927   -4.3336    0.0000 C   0  0  0  0  0  0  0  0  0  0  0  0
   16.2359   -5.8254    0.0000 O   0  0  0  0  0  0  0  0  0  0  0  0
   17.7630   -3.7235    0.0000 C   0  0  0  0  0  0  0  0  0  0  0  0
   18.9765   -4.6052    0.0000 C   0  0  0  0  0  0  0  0  0  0  0  0
   20.3469   -3.9951    0.0000 C   0  0  0  0  0  0  0  0  0  0  0  0
   21.5604   -4.8767    0.0000 C   0  0  0  0  0  0  0  0  0  0  0  0
   22.9307   -4.2666    0.0000 C   0  0  0  0  0  0  0  0  0  0  0  0
   24.1442   -5.1483    0.0000 N   0  0  0  0  0  0  0  0  0  0  0  0
   17.9198   -2.2317    0.0000 N   0  0  0  0  0  0  0  0  0  0  0  0
   19.2901   -1.6216    0.0000 C   0  0  0  0  0  0  0  0  0  0  0  0
   20.5036   -2.5033    0.0000 O   0  0  0  0  0  0  0  0  0  0  0  0
   19.4469   -0.1298    0.0000 C   0  0  0  0  0  0  0  0  0  0  0  0
   18.2334    0.7519    0.0000 N   0  0  0  0  0  0  0  0  0  0  0  0
   18.3902    2.2436    0.0000 C   0  0  0  0  0  0  0  0  0  0  0  0
   19.7605    2.8537    0.0000 O   0  0  0  0  0  0  0  0  0  0  0  0
   17.1767    3.1253    0.0000 C   0  0  0  0  0  0  0  0  0  0  0  0
   17.3334    4.6171    0.0000 C   0  0  0  0  0  0  0  0  0  0  0  0
   16.1199    5.4988    0.0000 C   0  0  0  0  0  0  0  0  0  0  0  0
   16.2767    6.9906    0.0000 C   0  0  0  0  0  0  0  0  0  0  0  0
   15.0632    7.8722    0.0000 N   0  0  0  0  0  0  0  0  0  0  0  0
   15.2200    9.3640    0.0000 C   0  0  0  0  0  0  0  0  0  0  0  0
   16.5903    9.9741    0.0000 N   0  0  0  0  0  0  0  0  0  0  0  0
   14.0065   10.2457    0.0000 N   0  0  0  0  0  0  0  0  0  0  0  0
   15.8063    2.5152    0.0000 N   0  0  0  0  0  0  0  0  0  0  0  0
   14.5928    3.3969    0.0000 C   0  0  0  0  0  0  0  0  0  0  0  0
   14.7496    4.8887    0.0000 O   0  0  0  0  0  0  0  0  0  0  0  0
   13.2225    2.7868    0.0000 C   0  0  0  0  0  0  0  0  0  0  0  0
   13.0657    1.2950    0.0000 C   0  0  0  0  0  0  0  0  0  0  0  0
   11.6954    0.6849    0.0000 C   0  0  0  0  0  0  0  0  0  0  0  0
   11.5386   -0.8069    0.0000 C   0  0  0  0  0  0  0  0  0  0  0  0
   12.0090    3.6685    0.0000 N   0  0  0  0  0  0  0  0  0  0  0  0
   12.1658    5.1603    0.0000 C   0  0  0  0  0  0  0  0  0  0  0  0
   10.9522    6.0419    0.0000 C   0  0  0  0  0  0  0  0  0  0  0  0
   13.5361    5.7704    0.0000 O   0  0  0  0  0  0  0  0  0  0  0  0
   20.8172    0.4803    0.0000 C   0  0  0  0  0  0  0  0  0  0  0  0
   20.9740    1.9721    0.0000 C   0  0  0  0  0  0  0  0  0  0  0  0
   22.0308   -0.4014    0.0000 C   0  0  0  0  0  0  0  0  0  0  0  0
   23.4011    0.2087    0.0000 C   0  0  0  0  0  0  0  0  0  0  0  0
    3.7156    7.2317    0.0000 C   0  0  0  0  0  0  0  0  0  0  0  0
    4.1791    8.6583    0.0000 N   0  0  0  0  0  0  0  0  0  0  0  0
    2.2484    6.9199    0.0000 O   0  0  0  0  0  0  0  0  0  0  0  0
  1  2  2  0
  2  3  1  0
  4  3  1  6
  4  5  1  0
  5  6  1  0
  6  7  2  0
  6  8  1  0
  8  9  1  1
  9 10  1  0
 10 11  2  0
 11 12  1  0
 12 13  2  0
 13 14  1  0
  8 15  1  0
 15 16  1  0
 16 17  2  0
 16 18  1  0
 18 19  1  6
 19 20  1  0
 20 21  1  0
 21 22  1  0
 21 23  2  0
 18 24  1  0
 24 25  1  0
 25 26  2  0
 25 27  1  0
 27 28  1  0
 28 29  1  0
 29 30  2  0
 29 31  1  0
 31 32  1  1
 32 33  1  0
 33 34  1  0
 34 35  1  0
 34 36  2  0
 31 37  1  0
 37 38  1  0
 38 39  2  0
 38 40  1  0
 40 41  1  1
 41 42  1  0
 42 43  2  0
 43 44  1  0
 44 45  2  0
 45 46  1  0
 40 47  1  0
 47 48  1  0
 48 49  2  0
 50 48  1  6
 50 51  1  0
 51 52  1  0
 52 53  1  0
 53 54  1  0
 54 55  1  0
 55 56  2  0
 55 57  1  0
 57 58  1  1
 58 59  1  0
 59 60  1  0
 60 61  1  0
 61 62  1  0
 57 63  1  0
 63 64  1  0
 64 65  2  0
 64 66  1  0
 66 67  1  1
 67 68  1  0
 68 69  2  0
 68 70  1  0
 70 71  1  1
 71 72  1  0
 72 73  1  0
 73 74  1  0
 74 75  1  0
 75 76  2  0
 75 77  1  0
 70 78  1  0
 78 79  1  0
 79 80  2  0
 79 81  1  0
 81 82  1  6
 82 83  1  0
 83 84  2  0
 81 85  1  0
 85 86  1  0
 86 87  1  0
 86 88  2  0
 66 89  1  0
 89 90  1  1
 89 91  1  0
 91 92  1  0
  4 93  1  0
 93 94  1  0
 93 95  2  0
 14 10  1  0
 46 42  1  0
 54 50  1  0
M  END
>  <Molecule ChEMBL ID>  (2) 
CHEMBL1684376

>  <Smiles>  (2) 
C=CC[C@H](NC(=O)[C@H](Cc1cnc[nH]1)NC(=O)[C@H](CCC(N)=O)NC(=O)CNC(=O)[C@H](CCC(N)=O)NC(=O)[C@H](Cc1cnc[nH]1)NC(=O)[C@@H]1CCCN1C(=O)[C@H](CCCCN)NC(=O)[C@@H](NC(=O)[C@H](CCCNC(=N)N)NC(=O)[C@H](CC=C)NC(C)=O)[C@@H](C)CC)C(N)=O

>  <pChEMBL Value>  (2) 
4.12

>  <similarity>  (2) 
0.06428571428571428

$$$$

     RDKit          2D

 25 28  0  0  0  0  0  0  0  0999 V2000
   -2.9499    4.2246    0.0000 N   0  0  0  0  0  0  0  0  0  0  0  0
   -1.8351    3.2209    0.0000 C   0  0  0  0  0  0  0  0  0  0  0  0
   -0.4086    3.6844    0.0000 N   0  0  0  0  0  0  0  0  0  0  0  0
    0.7062    2.6807    0.0000 C   0  0  0  0  0  0  0  0  0  0  0  0
    2.1328    3.1443    0.0000 N   0  0  0  0  0  0  0  0  0  0  0  0
    2.4446    4.6115    0.0000 C   0  0  0  0  0  0  0  0  0  0  0  0
    3.8712    5.0750    0.0000 C   0  0  0  0  0  0  0  0  0  0  0  0
    4.1831    6.5422    0.0000 C   0  0  0  0  0  0  0  0  0  0  0  0
    3.0684    7.5459    0.0000 C   0  0  0  0  0  0  0  0  0  0  0  0
    1.6418    7.0824    0.0000 C   0  0  0  0  0  0  0  0  0  0  0  0
    0.5271    8.0861    0.0000 Br  0  0  0  0  0  0  0  0  0  0  0  0
    1.3299    5.6152    0.0000 C   0  0  0  0  0  0  0  0  0  0  0  0
    0.3943    1.2135    0.0000 C   0  0  0  0  0  0  0  0  0  0  0  0
    1.2760    0.0000    0.0000 C   0  0  0  0  0  0  0  0  0  0  0  0
    0.3943   -1.2135    0.0000 C   0  0  0  0  0  0  0  0  0  0  0  0
   -1.0323   -0.7500    0.0000 N   0  0  0  0  0  0  0  0  0  0  0  0
   -2.2458   -1.6317    0.0000 C   0  0  0  0  0  0  0  0  0  0  0  0
   -2.0890   -3.1235    0.0000 C   0  0  0  0  0  0  0  0  0  0  0  0
   -3.3025   -4.0051    0.0000 C   0  0  0  0  0  0  0  0  0  0  0  0
   -3.1458   -5.4969    0.0000 C   0  0  0  0  0  0  0  0  0  0  0  0
   -1.7754   -6.1070    0.0000 C   0  0  0  0  0  0  0  0  0  0  0  0
   -0.5619   -5.2253    0.0000 C   0  0  0  0  0  0  0  0  0  0  0  0
   -0.7187   -3.7336    0.0000 C   0  0  0  0  0  0  0  0  0  0  0  0
   -1.0323    0.7500    0.0000 C   0  0  0  0  0  0  0  0  0  0  0  0
   -2.1470    1.7537    0.0000 N   0  0  0  0  0  0  0  0  0  0  0  0
  1  2  1  0
  2  3  2  0
  3  4  1  0
  4  5  1  0
  5  6  1  0
  6  7  2  0
  7  8  1  0
  8  9  2  0
  9 10  1  0
 10 11  1  0
 10 12  2  0
  4 13  2  0
 13 14  1  0
 14 15  2  0
 15 16  1  0
 16 17  1  0
 17 18  1  0
 18 19  2  0
 19 20  1  0
 20 21  2  0
 21 22  1  0
 22 23  2  0
 16 24  1  0
 24 25  2  0
 25  2  1  0
 12  6  1  0
 24 13  1  0
 23 18  1  0
M  END
>  <Molecule ChEMBL ID>  (3) 
CHEMBL1956888

>  <Smiles>  (3) 
Nc1nc(Nc2cccc(Br)c2)c2ccn(Cc3ccccc3)c2n1

>  <pChEMBL Value>  (3) 
4.0

>  <similarity>  (3) 
0.1111111111111111

$$$$

     RDKit          2D

 73 75  0  0  0  0  0  0  0  0999 V2000
    0.0419   -6.1361    0.0000 C   0  0  0  0  0  0  0  0  0  0  0  0
    1.0456   -5.0214    0.0000 C   0  0  0  0  0  0  0  0  0  0  0  0
    2.0493   -3.9066    0.0000 C   0  0  0  0  0  0  0  0  0  0  0  0
    1.5857   -2.4801    0.0000 C   0  0  0  0  0  0  0  0  0  0  0  0
    2.5894   -1.3653    0.0000 N   0  0  0  0  0  0  0  0  0  0  0  0
    4.0567   -1.6772    0.0000 C   0  0  0  0  0  0  0  0  0  0  0  0
    4.5202   -3.1038    0.0000 O   0  0  0  0  0  0  0  0  0  0  0  0
    5.0604   -0.5625    0.0000 C   0  0  0  0  0  0  0  0  0  0  0  0
    4.5968    0.8641    0.0000 C   0  0  0  0  0  0  0  0  0  0  0  0
    3.1296    1.1760    0.0000 C   0  0  0  0  0  0  0  0  0  0  0  0
    2.6661    2.6025    0.0000 C   0  0  0  0  0  0  0  0  0  0  0  0
    3.6698    3.7173    0.0000 O   0  0  0  0  0  0  0  0  0  0  0  0
    1.1989    2.9144    0.0000 O   0  0  0  0  0  0  0  0  0  0  0  0
    6.5276   -0.8744    0.0000 N   0  0  0  0  0  0  0  0  0  0  0  0
    6.9911   -2.3009    0.0000 C   0  0  0  0  0  0  0  0  0  0  0  0
    5.9874   -3.4157    0.0000 O   0  0  0  0  0  0  0  0  0  0  0  0
    8.4583   -2.6128    0.0000 C   0  0  0  0  0  0  0  0  0  0  0  0
    9.4620   -1.4981    0.0000 C   0  0  0  0  0  0  0  0  0  0  0  0
    8.9985   -0.0715    0.0000 C   0  0  0  0  0  0  0  0  0  0  0  0
   10.0022    1.0432    0.0000 C   0  0  0  0  0  0  0  0  0  0  0  0
    7.5313    0.2404    0.0000 C   0  0  0  0  0  0  0  0  0  0  0  0
    8.9218   -4.0394    0.0000 N   0  0  0  0  0  0  0  0  0  0  0  0
    7.9182   -5.1541    0.0000 C   0  0  0  0  0  0  0  0  0  0  0  0
    6.4509   -4.8423    0.0000 O   0  0  0  0  0  0  0  0  0  0  0  0
    8.3817   -6.5807    0.0000 C   0  0  0  0  0  0  0  0  0  0  0  0
    9.8083   -7.0442    0.0000 C   0  0  0  0  0  0  0  0  0  0  0  0
    9.8083   -8.5442    0.0000 C   0  0  0  0  0  0  0  0  0  0  0  0
    8.3817   -9.0078    0.0000 C   0  0  0  0  0  0  0  0  0  0  0  0
    7.5000   -7.7942    0.0000 N   0  0  0  0  0  0  0  0  0  0  0  0
    6.0000   -7.7942    0.0000 C   0  0  0  0  0  0  0  0  0  0  0  0
    5.2500   -6.4952    0.0000 O   0  0  0  0  0  0  0  0  0  0  0  0
    5.2500   -9.0933    0.0000 C   0  0  0  0  0  0  0  0  0  0  0  0
    6.0000  -10.3923    0.0000 C   0  0  0  0  0  0  0  0  0  0  0  0
    7.5000  -10.3923    0.0000 C   0  0  0  0  0  0  0  0  0  0  0  0
    8.2500  -11.6913    0.0000 C   0  0  0  0  0  0  0  0  0  0  0  0
    7.5000  -12.9904    0.0000 O   0  0  0  0  0  0  0  0  0  0  0  0
    9.7500  -11.6913    0.0000 O   0  0  0  0  0  0  0  0  0  0  0  0
    3.7500   -9.0933    0.0000 N   0  0  0  0  0  0  0  0  0  0  0  0
    3.0000   -7.7942    0.0000 C   0  0  0  0  0  0  0  0  0  0  0  0
    3.7500   -6.4952    0.0000 O   0  0  0  0  0  0  0  0  0  0  0  0
    1.5000   -7.7942    0.0000 C   0  0  0  0  0  0  0  0  0  0  0  0
    0.7500   -6.4952    0.0000 C   0  0  0  0  0  0  0  0  0  0  0  0
   -0.7500   -6.4952    0.0000 C   0  0  0  0  0  0  0  0  0  0  0  0
   -1.5000   -7.7942    0.0000 O   0  0  0  0  0  0  0  0  0  0  0  0
   -1.5000   -5.1962    0.0000 O   0  0  0  0  0  0  0  0  0  0  0  0
    0.7500   -9.0933    0.0000 N   0  0  0  0  0  0  0  0  0  0  0  0
    1.5000  -10.3923    0.0000 C   0  0  0  0  0  0  0  0  0  0  0  0
    3.0000  -10.3923    0.0000 O   0  0  0  0  0  0  0  0  0  0  0  0
    0.7500  -11.6913    0.0000 C   0  0  0  0  0  0  0  0  0  0  0  0
    1.5000  -12.9904    0.0000 C   0  0  0  0  0  0  0  0  0  0  0  0
    0.7500  -14.2894    0.0000 C   0  0  0  0  0  0  0  0  0  0  0  0
    1.5000  -15.5885    0.0000 C   0  0  0  0  0  0  0  0  0  0  0  0
    0.7500  -16.8875    0.0000 C   0  0  0  0  0  0  0  0  0  0  0  0
   -0.7500  -16.8875    0.0000 C   0  0  0  0  0  0  0  0  0  0  0  0
   -1.5000  -18.1865    0.0000 O   0  0  0  0  0  0  0  0  0  0  0  0
   -1.5000  -15.5885    0.0000 C   0  0  0  0  0  0  0  0  0  0  0  0
   -0.7500  -14.2894    0.0000 C   0  0  0  0  0  0  0  0  0  0  0  0
   -0.7500  -11.6913    0.0000 N   0  0  0  0  0  0  0  0  0  0  0  0
   -1.5000  -10.3923    0.0000 C   0  0  0  0  0  0  0  0  0  0  0  0
   -0.7500   -9.0933    0.0000 O   0  0  0  0  0  0  0  0  0  0  0  0
   -3.0000  -10.3923    0.0000 C   0  0  0  0  0  0  0  0  0  0  0  0
   -3.7500  -11.6913    0.0000 N   0  0  0  0  0  0  0  0  0  0  0  0
   -3.0000  -12.9904    0.0000 N   0  0  0  0  0  4  0  0  0  0  0  0
   -2.2500  -14.2894    0.0000 N   0  0  0  0  0  2  0  0  0  0  0  0
   -3.7500   -9.0933    0.0000 C   0  0  0  0  0  0  0  0  0  0  0  0
   -5.2500   -9.0933    0.0000 C   0  0  0  0  0  0  0  0  0  0  0  0
   -6.0000   -7.7942    0.0000 C   0  0  0  0  0  0  0  0  0  0  0  0
   -5.2500   -6.4952    0.0000 C   0  0  0  0  0  0  0  0  0  0  0  0
   -3.7500   -6.4952    0.0000 C   0  0  0  0  0  0  0  0  0  0  0  0
   -3.0000   -7.7942    0.0000 C   0  0  0  0  0  0  0  0  0  0  0  0
    0.1185   -2.1682    0.0000 C   0  0  0  0  0  0  0  0  0  0  0  0
   -0.8852   -3.2829    0.0000 N   0  0  0  0  0  0  0  0  0  0  0  0
   -0.3450   -0.7416    0.0000 O   0  0  0  0  0  0  0  0  0  0  0  0
  1  2  3  0
  2  3  1  0
  4  3  1  1
  4  5  1  0
  5  6  1  0
  6  7  2  0
  6  8  1  0
  8  9  1  6
  9 10  1  0
 10 11  1  0
 11 12  2  0
 11 13  1  0
  8 14  1  0
 14 15  1  0
 15 16  2  0
 15 17  1  0
 17 18  1  6
 18 19  1  0
 19 20  1  0
 19 21  1  0
 17 22  1  0
 22 23  1  0
 23 24  2  0
 25 23  1  6
 25 26  1  0
 26 27  1  0
 27 28  1  0
 28 29  1  0
 29 30  1  0
 30 31  2  0
 30 32  1  0
 32 33  1  6
 33 34  1  0
 34 35  1  0
 35 36  2  0
 35 37  1  0
 32 38  1  0
 38 39  1  0
 39 40  2  0
 39 41  1  0
 41 42  1  1
 42 43  1  0
 43 44  2  0
 43 45  1  0
 41 46  1  0
 46 47  1  0
 47 48  2  0
 47 49  1  0
 49 50  1  6
 50 51  1  0
 51 52  2  0
 52 53  1  0
 53 54  2  0
 54 55  1  0
 54 56  1  0
 56 57  2  0
 49 58  1  0
 58 59  1  0
 59 60  2  0
 59 61  1  0
 61 62  1  1
 62 63  2  0
 63 64  2  0
 61 65  1  0
 65 66  2  0
 66 67  1  0
 67 68  2  0
 68 69  1  0
 69 70  2  0
  4 71  1  0
 71 72  1  0
 71 73  2  0
 29 25  1  0
 57 51  1  0
 70 65  1  0
M  CHG  2  63   1  64  -1
M  END
>  <Molecule ChEMBL ID>  (4) 
CHEMBL2372113

>  <Smiles>  (4) 
C#CC[C@H](NC(=O)[C@H](CCC(=O)O)NC(=O)[C@H](CC(C)C)NC(=O)[C@@H]1CCCN1C(=O)[C@H](CCC(=O)O)NC(=O)[C@H](CC(=O)O)NC(=O)[C@H](Cc1ccc(O)cc1)NC(=O)[C@@H](N=[N+]=[N-])c1ccccc1)C(N)=O

>  <pChEMBL Value>  (4) 
4.02

>  <similarity>  (4) 
0.09016393442622951

$$$$

     RDKit          2D

 26 30  0  0  0  0  0  0  0  0999 V2000
    8.2500   -3.8971    0.0000 O   0  0  0  0  0  0  0  0  0  0  0  0
    7.5000   -2.5981    0.0000 C   0  0  0  0  0  0  0  0  0  0  0  0
    6.0000   -2.5981    0.0000 C   0  0  0  0  0  0  0  0  0  0  0  0
    5.2500   -3.8971    0.0000 C   0  0  0  0  0  0  0  0  0  0  0  0
    3.7500   -3.8971    0.0000 C   0  0  0  0  0  0  0  0  0  0  0  0
    3.0000   -2.5981    0.0000 N   0  0  0  0  0  0  0  0  0  0  0  0
    1.5000   -2.5981    0.0000 C   0  0  0  0  0  0  0  0  0  0  0  0
    0.7500   -1.2990    0.0000 C   0  0  0  0  0  0  0  0  0  0  0  0
    1.5000    0.0000    0.0000 C   0  0  0  0  0  0  0  0  0  0  0  0
    0.7500    1.2990    0.0000 C   0  0  0  0  0  0  0  0  0  0  0  0
   -0.7500    1.2990    0.0000 C   0  0  0  0  0  0  0  0  0  0  0  0
   -1.5000    0.0000    0.0000 C   0  0  0  0  0  0  0  0  0  0  0  0
   -0.7500   -1.2990    0.0000 C   0  0  0  0  0  0  0  0  0  0  0  0
   -1.7537   -2.4138    0.0000 C   0  0  0  0  0  0  0  0  0  0  0  0
   -3.1240   -1.8037    0.0000 C   0  0  0  0  0  0  0  0  0  0  0  0
   -2.9672   -0.3119    0.0000 C   0  0  0  0  0  0  0  0  0  0  0  0
   -4.3375    0.2982    0.0000 N   0  0  0  0  0  0  0  0  0  0  0  0
   -5.3412   -0.8165    0.0000 N   0  0  0  0  0  0  0  0  0  0  0  0
   -4.5912   -2.1155    0.0000 C   0  0  0  0  0  0  0  0  0  0  0  0
   -5.2013   -3.4858    0.0000 C   0  0  0  0  0  0  0  0  0  0  0  0
   -4.4513   -4.7849    0.0000 C   0  0  0  0  0  0  0  0  0  0  0  0
   -5.4550   -5.8996    0.0000 C   0  0  0  0  0  0  0  0  0  0  0  0
   -6.8254   -5.2895    0.0000 S   0  0  0  0  0  0  0  0  0  0  0  0
   -6.6686   -3.7977    0.0000 C   0  0  0  0  0  0  0  0  0  0  0  0
    3.7500   -1.2990    0.0000 C   0  0  0  0  0  0  0  0  0  0  0  0
    5.2500   -1.2990    0.0000 C   0  0  0  0  0  0  0  0  0  0  0  0
  1  2  1  0
  2  3  1  0
  3  4  1  0
  4  5  1  0
  5  6  1  0
  6  7  1  0
  7  8  1  0
  8  9  2  0
  9 10  1  0
 10 11  2  0
 11 12  1  0
 12 13  2  0
 13 14  1  0
 14 15  1  0
 15 16  1  0
 16 17  2  0
 17 18  1  0
 18 19  1  0
 19 20  1  0
 20 21  1  0
 21 22  2  0
 22 23  1  0
 23 24  1  0
  6 25  1  0
 25 26  1  0
 26  3  1  0
 13  8  1  0
 19 15  2  0
 24 20  2  0
 16 12  1  0
M  END
>  <Molecule ChEMBL ID>  (5) 
CHEMBL245934

>  <Smiles>  (5) 
OCC1CCN(Cc2cccc3c2Cc2c-3n[nH]c2-c2ccsc2)CC1

>  <pChEMBL Value>  (5) 
4.75

>  <similarity>  (5) 
0.06521739130434782

$$$$

     RDKit          2D

 29 32  0  0  0  0  0  0  0  0999 V2000
    6.1865    6.4289    0.0000 C   0  0  0  0  0  0  0  0  0  0  0  0
    4.7193    6.1170    0.0000 O   0  0  0  0  0  0  0  0  0  0  0  0
    4.2558    4.6904    0.0000 C   0  0  0  0  0  0  0  0  0  0  0  0
    5.2595    3.5757    0.0000 C   0  0  0  0  0  0  0  0  0  0  0  0
    4.7960    2.1491    0.0000 C   0  0  0  0  0  0  0  0  0  0  0  0
    3.3287    1.8373    0.0000 C   0  0  0  0  0  0  0  0  0  0  0  0
    2.8652    0.4107    0.0000 O   0  0  0  0  0  0  0  0  0  0  0  0
    3.8689   -0.7040    0.0000 C   0  0  0  0  0  0  0  0  0  0  0  0
    2.3250    2.9520    0.0000 C   0  0  0  0  0  0  0  0  0  0  0  0
    0.8578    2.6401    0.0000 C   0  0  0  0  0  0  0  0  0  0  0  0
    0.3943    1.2135    0.0000 C   0  0  0  0  0  0  0  0  0  0  0  0
    1.2760    0.0000    0.0000 C   0  0  0  0  0  0  0  0  0  0  0  0
    0.3943   -1.2135    0.0000 C   0  0  0  0  0  0  0  0  0  0  0  0
    0.7062   -2.6807    0.0000 C   0  0  0  0  0  0  0  0  0  0  0  0
    2.1328   -3.1443    0.0000 N   0  0  0  0  0  0  0  0  0  0  0  0
    2.4446   -4.6115    0.0000 C   0  0  0  0  0  0  0  0  0  0  0  0
    1.3299   -5.6152    0.0000 C   0  0  0  0  0  0  0  0  0  0  0  0
    1.6418   -7.0824    0.0000 C   0  0  0  0  0  0  0  0  0  0  0  0
    3.0684   -7.5459    0.0000 C   0  0  0  0  0  0  0  0  0  0  0  0
    4.1831   -6.5422    0.0000 C   0  0  0  0  0  0  0  0  0  0  0  0
    5.6097   -7.0058    0.0000 Br  0  0  0  0  0  0  0  0  0  0  0  0
    3.8712   -5.0750    0.0000 C   0  0  0  0  0  0  0  0  0  0  0  0
   -0.4086   -3.6844    0.0000 N   0  0  0  0  0  0  0  0  0  0  0  0
   -1.8351   -3.2209    0.0000 C   0  0  0  0  0  0  0  0  0  0  0  0
   -2.9499   -4.2246    0.0000 N   0  0  0  0  0  0  0  0  0  0  0  0
   -2.1470   -1.7537    0.0000 N   0  0  0  0  0  0  0  0  0  0  0  0
   -1.0323   -0.7500    0.0000 C   0  0  0  0  0  0  0  0  0  0  0  0
   -1.0323    0.7500    0.0000 N   0  0  0  0  0  0  0  0  0  0  0  0
    2.7886    4.3786    0.0000 C   0  0  0  0  0  0  0  0  0  0  0  0
  1  2  1  0
  2  3  1  0
  3  4  2  0
  4  5  1  0
  5  6  2  0
  6  7  1  0
  7  8  1  0
  6  9  1  0
  9 10  1  0
 10 11  1  0
 11 12  2  0
 12 13  1  0
 13 14  2  0
 14 15  1  0
 15 16  1  0
 16 17  2  0
 17 18  1  0
 18 19  2  0
 19 20  1  0
 20 21  1  0
 20 22  2  0
 14 23  1  0
 23 24  2  0
 24 25  1  0
 24 26  1  0
 26 27  2  0
 27 28  1  0
  9 29  2  0
 29  3  1  0
 28 11  1  0
 27 13  1  0
 22 16  1  0
M  END
>  <Molecule ChEMBL ID>  (6) 
CHEMBL1095465

>  <Smiles>  (6) 
COc1ccc(OC)c(Cc2cc3c(Nc4cccc(Br)c4)nc(N)nc3[nH]2)c1

>  <pChEMBL Value>  (6) 
4.51

>  <similarity>  (6) 
0.125

$$$$

     RDKit          2D

 27 30  0  0  0  0  0  0  0  0999 V2000
   -2.9499    4.2246    0.0000 N   0  0  0  0  0  0  0  0  0  0  0  0
   -1.8351    3.2209    0.0000 C   0  0  0  0  0  0  0  0  0  0  0  0
   -0.4086    3.6844    0.0000 N   0  0  0  0  0  0  0  0  0  0  0  0
    0.7062    2.6807    0.0000 C   0  0  0  0  0  0  0  0  0  0  0  0
    2.1328    3.1443    0.0000 N   0  0  0  0  0  0  0  0  0  0  0  0
    2.4446    4.6115    0.0000 C   0  0  0  0  0  0  0  0  0  0  0  0
    3.8712    5.0750    0.0000 C   0  0  0  0  0  0  0  0  0  0  0  0
    4.1831    6.5422    0.0000 C   0  0  0  0  0  0  0  0  0  0  0  0
    3.0684    7.5459    0.0000 C   0  0  0  0  0  0  0  0  0  0  0  0
    1.6418    7.0824    0.0000 C   0  0  0  0  0  0  0  0  0  0  0  0
    0.5271    8.0861    0.0000 Br  0  0  0  0  0  0  0  0  0  0  0  0
    1.3299    5.6152    0.0000 C   0  0  0  0  0  0  0  0  0  0  0  0
    0.3943    1.2135    0.0000 C   0  0  0  0  0  0  0  0  0  0  0  0
    1.2760    0.0000    0.0000 C   0  0  0  0  0  0  0  0  0  0  0  0
    0.3943   -1.2135    0.0000 C   0  0  0  0  0  0  0  0  0  0  0  0
    0.8578   -2.6401    0.0000 C   0  0  0  0  0  0  0  0  0  0  0  0
   -0.1459   -3.7548    0.0000 C   0  0  0  0  0  0  0  0  0  0  0  0
    0.3177   -5.1814    0.0000 C   0  0  0  0  0  0  0  0  0  0  0  0
   -0.6860   -6.2961    0.0000 C   0  0  0  0  0  0  0  0  0  0  0  0
   -0.2225   -7.7227    0.0000 C   0  0  0  0  0  0  0  0  0  0  0  0
    1.2447   -8.0346    0.0000 C   0  0  0  0  0  0  0  0  0  0  0  0
    2.2484   -6.9199    0.0000 C   0  0  0  0  0  0  0  0  0  0  0  0
    1.7849   -5.4933    0.0000 C   0  0  0  0  0  0  0  0  0  0  0  0
    2.7886   -4.3786    0.0000 Cl  0  0  0  0  0  0  0  0  0  0  0  0
   -1.0323   -0.7500    0.0000 N   0  0  0  0  0  0  0  0  0  0  0  0
   -1.0323    0.7500    0.0000 C   0  0  0  0  0  0  0  0  0  0  0  0
   -2.1470    1.7537    0.0000 N   0  0  0  0  0  0  0  0  0  0  0  0
  1  2  1  0
  2  3  2  0
  3  4  1  0
  4  5  1  0
  5  6  1  0
  6  7  2  0
  7  8  1  0
  8  9  2  0
  9 10  1  0
 10 11  1  0
 10 12  2  0
  4 13  2  0
 13 14  1  0
 14 15  2  0
 15 16  1  0
 16 17  1  0
 17 18  1  0
 18 19  2  0
 19 20  1  0
 20 21  2  0
 21 22  1  0
 22 23  2  0
 23 24  1  0
 15 25  1  0
 25 26  1  0
 26 27  2  0
 27  2  1  0
 12  6  1  0
 26 13  1  0
 23 18  1  0
M  END
>  <Molecule ChEMBL ID>  (7) 
CHEMBL482489

>  <Smiles>  (7) 
Nc1nc(Nc2cccc(Br)c2)c2cc(CCc3ccccc3Cl)[nH]c2n1

>  <pChEMBL Value>  (7) 
4.49

>  <similarity>  (7) 
0.13253012048192772

$$$$

     RDKit          2D

 26 29  0  0  0  0  0  0  0  0999 V2000
   -2.9499    4.2246    0.0000 N   0  0  0  0  0  0  0  0  0  0  0  0
   -1.8351    3.2209    0.0000 C   0  0  0  0  0  0  0  0  0  0  0  0
   -0.4086    3.6844    0.0000 N   0  0  0  0  0  0  0  0  0  0  0  0
    0.7062    2.6807    0.0000 C   0  0  0  0  0  0  0  0  0  0  0  0
    2.1328    3.1443    0.0000 N   0  0  0  0  0  0  0  0  0  0  0  0
    2.4446    4.6115    0.0000 C   0  0  0  0  0  0  0  0  0  0  0  0
    3.8712    5.0750    0.0000 C   0  0  0  0  0  0  0  0  0  0  0  0
    4.1831    6.5422    0.0000 C   0  0  0  0  0  0  0  0  0  0  0  0
    3.0684    7.5459    0.0000 C   0  0  0  0  0  0  0  0  0  0  0  0
    1.6418    7.0824    0.0000 C   0  0  0  0  0  0  0  0  0  0  0  0
    0.5271    8.0861    0.0000 Br  0  0  0  0  0  0  0  0  0  0  0  0
    1.3299    5.6152    0.0000 C   0  0  0  0  0  0  0  0  0  0  0  0
    0.3943    1.2135    0.0000 C   0  0  0  0  0  0  0  0  0  0  0  0
    1.2760    0.0000    0.0000 C   0  0  0  0  0  0  0  0  0  0  0  0
    0.3943   -1.2135    0.0000 C   0  0  0  0  0  0  0  0  0  0  0  0
    0.8578   -2.6401    0.0000 C   0  0  0  0  0  0  0  0  0  0  0  0
   -0.1459   -3.7548    0.0000 C   0  0  0  0  0  0  0  0  0  0  0  0
   -1.6131   -3.4430    0.0000 C   0  0  0  0  0  0  0  0  0  0  0  0
   -2.6168   -4.5577    0.0000 C   0  0  0  0  0  0  0  0  0  0  0  0
   -2.1533   -5.9843    0.0000 C   0  0  0  0  0  0  0  0  0  0  0  0
   -0.6860   -6.2961    0.0000 C   0  0  0  0  0  0  0  0  0  0  0  0
    0.3177   -5.1814    0.0000 C   0  0  0  0  0  0  0  0  0  0  0  0
    1.7849   -5.4933    0.0000 Cl  0  0  0  0  0  0  0  0  0  0  0  0
   -1.0323   -0.7500    0.0000 N   0  0  0  0  0  0  0  0  0  0  0  0
   -1.0323    0.7500    0.0000 C   0  0  0  0  0  0  0  0  0  0  0  0
   -2.1470    1.7537    0.0000 N   0  0  0  0  0  0  0  0  0  0  0  0
  1  2  1  0
  2  3  2  0
  3  4  1  0
  4  5  1  0
  5  6  1  0
  6  7  2  0
  7  8  1  0
  8  9  2  0
  9 10  1  0
 10 11  1  0
 10 12  2  0
  4 13  2  0
 13 14  1  0
 14 15  2  0
 15 16  1  0
 16 17  1  0
 17 18  2  0
 18 19  1  0
 19 20  2  0
 20 21  1  0
 21 22  2  0
 22 23  1  0
 15 24  1  0
 24 25  1  0
 25 26  2  0
 26  2  1  0
 12  6  1  0
 25 13  1  0
 22 17  1  0
M  END
>  <Molecule ChEMBL ID>  (8) 
CHEMBL499345

>  <Smiles>  (8) 
Nc1nc(Nc2cccc(Br)c2)c2cc(Cc3ccccc3Cl)[nH]c2n1

>  <pChEMBL Value>  (8) 
4.57

>  <similarity>  (8) 
0.13414634146341464

$$$$

     RDKit          2D

 29 33  0  0  0  0  0  0  0  0999 V2000
   -5.5537  -10.0211    0.0000 N   0  0  0  0  0  0  0  0  0  0  0  0
   -5.5537   -8.5211    0.0000 C   0  0  0  0  0  0  0  0  0  0  0  0
   -6.8527   -7.7711    0.0000 N   0  0  0  0  0  0  0  0  0  0  0  0
   -6.8527   -6.2711    0.0000 C   0  0  0  0  0  0  0  0  0  0  0  0
   -8.1517   -5.5211    0.0000 N   0  0  0  0  0  0  0  0  0  0  0  0
   -9.4508   -6.2711    0.0000 C   0  0  0  0  0  0  0  0  0  0  0  0
  -10.7498   -5.5211    0.0000 C   0  0  0  0  0  0  0  0  0  0  0  0
  -12.0488   -6.2711    0.0000 C   0  0  0  0  0  0  0  0  0  0  0  0
  -12.0488   -7.7711    0.0000 C   0  0  0  0  0  0  0  0  0  0  0  0
  -10.7498   -8.5211    0.0000 C   0  0  0  0  0  0  0  0  0  0  0  0
  -10.7498  -10.0211    0.0000 Br  0  0  0  0  0  0  0  0  0  0  0  0
   -9.4508   -7.7711    0.0000 C   0  0  0  0  0  0  0  0  0  0  0  0
   -5.5537   -5.5211    0.0000 C   0  0  0  0  0  0  0  0  0  0  0  0
   -5.2418   -4.0539    0.0000 C   0  0  0  0  0  0  0  0  0  0  0  0
   -3.7500   -3.8971    0.0000 C   0  0  0  0  0  0  0  0  0  0  0  0
   -3.0000   -2.5981    0.0000 C   0  0  0  0  0  0  0  0  0  0  0  0
   -1.5000   -2.5981    0.0000 C   0  0  0  0  0  0  0  0  0  0  0  0
   -0.7500   -3.8971    0.0000 C   0  0  0  0  0  0  0  0  0  0  0  0
    0.7500   -3.8971    0.0000 C   0  0  0  0  0  0  0  0  0  0  0  0
    1.5000   -2.5981    0.0000 C   0  0  0  0  0  0  0  0  0  0  0  0
    0.7500   -1.2990    0.0000 C   0  0  0  0  0  0  0  0  0  0  0  0
    1.5000    0.0000    0.0000 C   0  0  0  0  0  0  0  0  0  0  0  0
    0.7500    1.2990    0.0000 C   0  0  0  0  0  0  0  0  0  0  0  0
   -0.7500    1.2990    0.0000 C   0  0  0  0  0  0  0  0  0  0  0  0
   -1.5000    0.0000    0.0000 C   0  0  0  0  0  0  0  0  0  0  0  0
   -0.7500   -1.2990    0.0000 C   0  0  0  0  0  0  0  0  0  0  0  0
   -3.1399   -5.2674    0.0000 N   0  0  0  0  0  0  0  0  0  0  0  0
   -4.2546   -6.2711    0.0000 C   0  0  0  0  0  0  0  0  0  0  0  0
   -4.2546   -7.7711    0.0000 N   0  0  0  0  0  0  0  0  0  0  0  0
  1  2  1  0
  2  3  2  0
  3  4  1  0
  4  5  1  0
  5  6  1  0
  6  7  2  0
  7  8  1  0
  8  9  2  0
  9 10  1  0
 10 11  1  0
 10 12  2  0
  4 13  2  0
 13 14  1  0
 14 15  2  0
 15 16  1  0
 16 17  1  0
 17 18  2  0
 18 19  1  0
 19 20  2  0
 20 21  1  0
 21 22  2  0
 22 23  1  0
 23 24  2  0
 24 25  1  0
 25 26  2  0
 15 27  1  0
 27 28  1  0
 28 29  2  0
 29  2  1  0
 12  6  1  0
 28 13  1  0
 26 17  1  0
 26 21  1  0
M  END
>  <Molecule ChEMBL ID>  (9) 
CHEMBL474538

>  <Smiles>  (9) 
Nc1nc(Nc2cccc(Br)c2)c2cc(Cc3cccc4ccccc34)[nH]c2n1

>  <pChEMBL Value>  (9) 
4.72

>  <similarity>  (9) 
0.13580246913580246

$$$$

     RDKit          2D

 24 25  0  0  0  0  0  0  0  0999 V2000
    3.7500   -1.2990    0.0000 C   0  0  0  0  0  0  0  0  0  0  0  0
    3.0000    0.0000    0.0000 O   0  0  0  0  0  0  0  0  0  0  0  0
    1.5000    0.0000    0.0000 C   0  0  0  0  0  0  0  0  0  0  0  0
    0.7500   -1.2990    0.0000 C   0  0  0  0  0  0  0  0  0  0  0  0
   -0.7500   -1.2990    0.0000 C   0  0  0  0  0  0  0  0  0  0  0  0
   -1.3361   -2.6798    0.0000 O   0  0  0  0  0  0  0  0  0  0  0  0
   -1.5000    0.0000    0.0000 C   0  0  0  0  0  0  0  0  0  0  0  0
   -0.7500    1.2990    0.0000 C   0  0  0  0  0  0  0  0  0  0  0  0
    0.7500    1.2990    0.0000 C   0  0  0  0  0  0  0  0  0  0  0  0
   -0.6379    2.7948    0.0000 C   0  0  0  0  0  0  0  0  0  0  0  0
   -1.1859    4.1912    0.0000 C   0  0  0  0  0  0  0  0  0  0  0  0
   -2.2855    5.2114    0.0000 C   0  0  0  0  0  0  0  0  0  0  0  0
   -3.7189    5.6535    0.0000 C   0  0  0  0  0  0  0  0  0  0  0  0
   -5.2021    5.4300    0.0000 C   0  0  0  0  0  0  0  0  0  0  0  0
   -6.4415    4.5850    0.0000 C   0  0  0  0  0  0  0  0  0  0  0  0
   -7.8748    5.0271    0.0000 O   0  0  0  0  0  0  0  0  0  0  0  0
   -6.5536    3.0892    0.0000 C   0  0  0  0  0  0  0  0  0  0  0  0
   -7.3036    1.7902    0.0000 C   0  0  0  0  0  0  0  0  0  0  0  0
   -6.7555    0.3938    0.0000 C   0  0  0  0  0  0  0  0  0  0  0  0
   -5.6560   -0.6264    0.0000 C   0  0  0  0  0  0  0  0  0  0  0  0
   -6.4060   -1.9254    0.0000 C   0  0  0  0  0  0  0  0  0  0  0  0
   -4.2226   -1.0685    0.0000 O   0  0  0  0  0  0  0  0  0  0  0  0
   -2.7394   -0.8450    0.0000 C   0  0  0  0  0  0  0  0  0  0  0  0
   -2.3656   -2.2977    0.0000 O   0  0  0  0  0  0  0  0  0  0  0  0
  1  2  1  0
  2  3  1  0
  3  4  2  0
  4  5  1  0
  5  6  1  0
  5  7  2  0
  7  8  1  0
  8  9  2  0
  8 10  1  0
 10 11  1  0
 11 12  1  0
 12 13  1  0
 13 14  1  0
 14 15  1  0
 15 16  2  0
 15 17  1  0
 17 18  2  0
 18 19  1  0
 19 20  1  0
 20 21  1  1
 20 22  1  0
 22 23  1  0
 23 24  2  0
  9  3  1  0
 23  7  1  0
M  END
>  <Molecule ChEMBL ID>  (10) 
CHEMBL1668419

>  <Smiles>  (10) 
COc1cc(O)c2c(c1)CCCCCC(=O)/C=C/C[C@H](C)OC2=O

>  <pChEMBL Value>  (10) 
4.48

>  <similarity>  (10) 
0.1125

$$$$

     RDKit          2D

 22 24  0  0  0  0  0  0  0  0999 V2000
    3.0000   -5.1962    0.0000 C   0  0  0  0  0  0  0  0  0  0  0  0
    1.5000   -5.1962    0.0000 O   0  0  0  0  0  0  0  0  0  0  0  0
    0.7500   -3.8971    0.0000 C   0  0  0  0  0  0  0  0  0  0  0  0
    1.5000   -2.5981    0.0000 C   0  0  0  0  0  0  0  0  0  0  0  0
    0.7500   -1.2990    0.0000 C   0  0  0  0  0  0  0  0  0  0  0  0
    1.5000    0.0000    0.0000 N   0  0  0  0  0  0  0  0  0  0  0  0
    0.7500    1.2990    0.0000 C   0  0  0  0  0  0  0  0  0  0  0  0
   -0.7500    1.2990    0.0000 N   0  0  0  0  0  0  0  0  0  0  0  0
   -1.5000    0.0000    0.0000 C   0  0  0  0  0  0  0  0  0  0  0  0
   -3.0000    0.0000    0.0000 N   0  0  0  0  0  0  0  0  0  0  0  0
   -3.7500    1.2990    0.0000 C   0  0  0  0  0  0  0  0  0  0  0  0
   -3.0000    2.5981    0.0000 C   0  0  0  0  0  0  0  0  0  0  0  0
   -3.7500    3.8971    0.0000 C   0  0  0  0  0  0  0  0  0  0  0  0
   -5.2500    3.8971    0.0000 C   0  0  0  0  0  0  0  0  0  0  0  0
   -6.0000    2.5981    0.0000 C   0  0  0  0  0  0  0  0  0  0  0  0
   -5.2500    1.2990    0.0000 C   0  0  0  0  0  0  0  0  0  0  0  0
   -6.0000    0.0000    0.0000 F   0  0  0  0  0  0  0  0  0  0  0  0
   -0.7500   -1.2990    0.0000 C   0  0  0  0  0  0  0  0  0  0  0  0
   -1.5000   -2.5981    0.0000 C   0  0  0  0  0  0  0  0  0  0  0  0
   -0.7500   -3.8971    0.0000 C   0  0  0  0  0  0  0  0  0  0  0  0
   -1.5000   -5.1962    0.0000 O   0  0  0  0  0  0  0  0  0  0  0  0
   -3.0000   -5.1962    0.0000 C   0  0  0  0  0  0  0  0  0  0  0  0
  1  2  1  0
  2  3  1  0
  3  4  2  0
  4  5  1  0
  5  6  2  0
  6  7  1  0
  7  8  2  0
  8  9  1  0
  9 10  1  0
 10 11  1  0
 11 12  2  0
 12 13  1  0
 13 14  2  0
 14 15  1  0
 15 16  2  0
 16 17  1  0
  9 18  2  0
 18 19  1  0
 19 20  2  0
 20 21  1  0
 21 22  1  0
 20  3  1  0
 18  5  1  0
 16 11  1  0
M  END
>  <Molecule ChEMBL ID>  (11) 
CHEMBL150581

>  <Smiles>  (11) 
COc1cc2ncnc(Nc3ccccc3F)c2cc1OC

>  <pChEMBL Value>  (11) 
4.58

>  <similarity>  (11) 
0.1388888888888889

$$$$

     RDKit          2D

 29 32  0  0  0  0  0  0  0  0999 V2000
   -5.2500   -3.8971    0.0000 C   0  0  0  0  0  0  0  0  0  0  0  0
   -3.7500   -3.8971    0.0000 O   0  0  0  0  0  0  0  0  0  0  0  0
   -3.0000   -2.5981    0.0000 C   0  0  0  0  0  0  0  0  0  0  0  0
   -1.5000   -2.5981    0.0000 C   0  0  0  0  0  0  0  0  0  0  0  0
   -0.7500   -1.2990    0.0000 C   0  0  0  0  0  0  0  0  0  0  0  0
    0.7500   -1.2990    0.0000 C   0  0  0  0  0  0  0  0  0  0  0  0
    1.5000   -2.5981    0.0000 N   0  0  0  0  0  0  0  0  0  0  0  0
    3.0000   -2.5981    0.0000 C   0  0  0  0  0  0  0  0  0  0  0  0
    3.7500   -3.8971    0.0000 C   0  0  0  0  0  0  0  0  0  0  0  0
    5.2500   -3.8971    0.0000 C   0  0  0  0  0  0  0  0  0  0  0  0
    6.0000   -2.5981    0.0000 C   0  0  0  0  0  0  0  0  0  0  0  0
    7.5000   -2.5981    0.0000 Cl  0  0  0  0  0  0  0  0  0  0  0  0
    5.2500   -1.2990    0.0000 C   0  0  0  0  0  0  0  0  0  0  0  0
    3.7500   -1.2990    0.0000 C   0  0  0  0  0  0  0  0  0  0  0  0
    3.0000   -0.0000    0.0000 F   0  0  0  0  0  0  0  0  0  0  0  0
    1.5000    0.0000    0.0000 N   0  0  0  0  0  0  0  0  0  0  0  0
    0.7500    1.2990    0.0000 C   0  0  0  0  0  0  0  0  0  0  0  0
   -0.7500    1.2990    0.0000 N   0  0  0  0  0  0  0  0  0  0  0  0
   -1.5000    0.0000    0.0000 C   0  0  0  0  0  0  0  0  0  0  0  0
   -3.0000    0.0000    0.0000 C   0  0  0  0  0  0  0  0  0  0  0  0
   -3.7500   -1.2990    0.0000 C   0  0  0  0  0  0  0  0  0  0  0  0
   -5.2500   -1.2990    0.0000 O   0  0  0  0  0  0  0  0  0  0  0  0
   -6.0000    0.0000    0.0000 C   0  0  0  0  0  0  0  0  0  0  0  0
   -5.2500    1.2990    0.0000 C   0  0  0  0  0  0  0  0  0  0  0  0
   -6.0000    2.5981    0.0000 C   0  0  0  0  0  0  0  0  0  0  0  0
   -7.5000    2.5981    0.0000 N   0  0  0  0  0  0  0  0  0  0  0  0
   -8.2500    3.8971    0.0000 C   0  0  0  0  0  0  0  0  0  0  0  0
   -8.2500    1.2990    0.0000 C   0  0  0  0  0  0  0  0  0  0  0  0
   -7.5000    0.0000    0.0000 C   0  0  0  0  0  0  0  0  0  0  0  0
  1  2  1  0
  2  3  1  0
  3  4  2  0
  4  5  1  0
  5  6  2  0
  6  7  1  0
  7  8  1  0
  8  9  2  0
  9 10  1  0
 10 11  2  0
 11 12  1  0
 11 13  1  0
 13 14  2  0
 14 15  1  0
  6 16  1  0
 16 17  2  0
 17 18  1  0
 18 19  2  0
 19 20  1  0
 20 21  2  0
 21 22  1  0
 22 23  1  0
 23 24  1  0
 24 25  1  0
 25 26  1  0
 26 27  1  0
 26 28  1  0
 28 29  1  0
 21  3  1  0
 29 23  1  0
 19  5  1  0
 14  8  1  0
M  END
>  <Molecule ChEMBL ID>  (12) 
CHEMBL26050

>  <Smiles>  (12) 
COc1cc2c(Nc3ccc(Cl)cc3F)ncnc2cc1OC1CCN(C)CC1

>  <pChEMBL Value>  (12) 
4.82

>  <similarity>  (12) 
0.0989010989010989

$$$$

     RDKit          2D

102105  0  0  0  0  0  0  0  0999 V2000
   -3.7033   23.4059    0.0000 C   0  0  0  0  0  0  0  0  0  0  0  0
   -4.7956   22.3778    0.0000 S   0  0  0  0  0  0  0  0  0  0  0  0
   -4.4514   20.9179    0.0000 C   0  0  0  0  0  0  0  0  0  0  0  0
   -5.5438   19.8898    0.0000 C   0  0  0  0  0  0  0  0  0  0  0  0
   -5.1996   18.4298    0.0000 C   0  0  0  0  0  0  0  0  0  0  0  0
   -3.7162   18.6522    0.0000 N   0  0  0  0  0  0  0  0  0  0  0  0
   -2.2164   18.6274    0.0000 C   0  0  0  0  0  0  0  0  0  0  0  0
   -2.0678   20.1201    0.0000 O   0  0  0  0  0  0  0  0  0  0  0  0
   -0.7411   18.3561    0.0000 C   0  0  0  0  0  0  0  0  0  0  0  0
   -0.3489   19.8039    0.0000 C   0  0  0  0  0  0  0  0  0  0  0  0
    1.1010   20.1882    0.0000 C   0  0  0  0  0  0  0  0  0  0  0  0
    1.6424   21.5870    0.0000 C   0  0  0  0  0  0  0  0  0  0  0  0
    3.1402   21.5044    0.0000 N   0  0  0  0  0  0  0  0  0  0  0  0
    3.5244   20.0545    0.0000 C   0  0  0  0  0  0  0  0  0  0  0  0
    2.2641   19.2410    0.0000 N   0  0  0  0  0  0  0  0  0  0  0  0
    0.6693   17.8457    0.0000 N   0  0  0  0  0  0  0  0  0  0  0  0
    1.9766   17.1100    0.0000 C   0  0  0  0  0  0  0  0  0  0  0  0
    2.8176   18.3521    0.0000 O   0  0  0  0  0  0  0  0  0  0  0  0
    3.1449   16.1693    0.0000 C   0  0  0  0  0  0  0  0  0  0  0  0
    4.1789   17.2559    0.0000 C   0  0  0  0  0  0  0  0  0  0  0  0
    5.6370   16.9037    0.0000 C   0  0  0  0  0  0  0  0  0  0  0  0
    6.6710   17.9904    0.0000 C   0  0  0  0  0  0  0  0  0  0  0  0
    6.2470   19.4292    0.0000 O   0  0  0  0  0  0  0  0  0  0  0  0
    8.1291   17.6382    0.0000 O   0  0  0  0  0  0  0  0  0  0  0  0
    4.1424   15.0490    0.0000 N   0  0  0  0  0  0  0  0  0  0  0  0
    4.9420   13.7799    0.0000 C   0  0  0  0  0  0  0  0  0  0  0  0
    6.2728   14.4719    0.0000 O   0  0  0  0  0  0  0  0  0  0  0  0
    5.5217   12.3965    0.0000 C   0  0  0  0  0  0  0  0  0  0  0  0
    6.9483   12.8600    0.0000 C   0  0  0  0  0  0  0  0  0  0  0  0
    8.0630   11.8563    0.0000 C   0  0  0  0  0  0  0  0  0  0  0  0
    7.2602   14.3272    0.0000 C   0  0  0  0  0  0  0  0  0  0  0  0
    5.8658   10.9365    0.0000 N   0  0  0  0  0  0  0  0  0  0  0  0
    5.9650    9.4398    0.0000 C   0  0  0  0  0  0  0  0  0  0  0  0
    7.4648    9.4150    0.0000 O   0  0  0  0  0  0  0  0  0  0  0  0
    5.8164    7.9471    0.0000 C   0  0  0  0  0  0  0  0  0  0  0  0
    7.2917    7.6758    0.0000 C   0  0  0  0  0  0  0  0  0  0  0  0
    7.7943    6.2625    0.0000 C   0  0  0  0  0  0  0  0  0  0  0  0
    9.2696    5.9912    0.0000 C   0  0  0  0  0  0  0  0  0  0  0  0
   10.2422    7.1332    0.0000 O   0  0  0  0  0  0  0  0  0  0  0  0
    9.7722    4.5779    0.0000 O   0  0  0  0  0  0  0  0  0  0  0  0
    5.4242    6.4993    0.0000 N   0  0  0  0  0  0  0  0  0  0  0  0
    4.7990    5.1358    0.0000 C   0  0  0  0  0  0  0  0  0  0  0  0
    6.1062    4.4002    0.0000 O   0  0  0  0  0  0  0  0  0  0  0  0
    3.9579    3.8938    0.0000 C   0  0  0  0  0  0  0  0  0  0  0  0
    5.1263    2.9530    0.0000 C   0  0  0  0  0  0  0  0  0  0  0  0
    4.8957    1.4709    0.0000 O   0  0  0  0  0  0  0  0  0  0  0  0
    2.9239    2.8072    0.0000 N   0  0  0  0  0  0  0  0  0  0  0  0
    1.7251    1.9055    0.0000 C   0  0  0  0  0  0  0  0  0  0  0  0
    2.5247    0.6364    0.0000 O   0  0  0  0  0  0  0  0  0  0  0  0
    0.3943    1.2135    0.0000 C   0  0  0  0  0  0  0  0  0  0  0  0
    1.2760    0.0000    0.0000 C   0  0  0  0  0  0  0  0  0  0  0  0
    0.3943   -1.2135    0.0000 C   0  0  0  0  0  0  0  0  0  0  0  0
   -1.0323   -0.7500    0.0000 C   0  0  0  0  0  0  0  0  0  0  0  0
   -1.0323    0.7500    0.0000 N   0  0  0  0  0  0  0  0  0  0  0  0
   -2.5157    0.5276    0.0000 C   0  0  0  0  0  0  0  0  0  0  0  0
   -2.4166   -0.9691    0.0000 O   0  0  0  0  0  0  0  0  0  0  0  0
   -4.0155    0.5524    0.0000 C   0  0  0  0  0  0  0  0  0  0  0  0
   -4.1641   -0.9402    0.0000 C   0  0  0  0  0  0  0  0  0  0  0  0
   -5.5310   -1.5579    0.0000 C   0  0  0  0  0  0  0  0  0  0  0  0
   -6.7494   -0.6829    0.0000 C   0  0  0  0  0  0  0  0  0  0  0  0
   -8.1163   -1.3005    0.0000 C   0  0  0  0  0  0  0  0  0  0  0  0
   -8.2649   -2.7932    0.0000 C   0  0  0  0  0  0  0  0  0  0  0  0
   -9.6318   -3.4108    0.0000 O   0  0  0  0  0  0  0  0  0  0  0  0
   -7.0465   -3.6681    0.0000 C   0  0  0  0  0  0  0  0  0  0  0  0
   -5.6796   -3.0505    0.0000 C   0  0  0  0  0  0  0  0  0  0  0  0
   -5.4908    0.8237    0.0000 N   0  0  0  0  0  0  0  0  0  0  0  0
   -6.9012    1.3342    0.0000 C   0  0  0  0  0  0  0  0  0  0  0  0
   -7.5264   -0.0293    0.0000 O   0  0  0  0  0  0  0  0  0  0  0  0
   -8.2085    2.0698    0.0000 C   0  0  0  0  0  0  0  0  0  0  0  0
   -9.0495    0.8278    0.0000 C   0  0  0  0  0  0  0  0  0  0  0  0
  -10.5457    0.9352    0.0000 C   0  0  0  0  0  0  0  0  0  0  0  0
  -11.3868   -0.3068    0.0000 C   0  0  0  0  0  0  0  0  0  0  0  0
  -10.7317   -1.6562    0.0000 O   0  0  0  0  0  0  0  0  0  0  0  0
  -12.8829   -0.1995    0.0000 O   0  0  0  0  0  0  0  0  0  0  0  0
   -9.3768    3.0106    0.0000 N   0  0  0  0  0  0  0  0  0  0  0  0
  -10.3743    4.1308    0.0000 C   0  0  0  0  0  0  0  0  0  0  0  0
  -11.5731    3.2292    0.0000 O   0  0  0  0  0  0  0  0  0  0  0  0
  -11.1739    5.3999    0.0000 C   0  0  0  0  0  0  0  0  0  0  0  0
  -12.5047    4.7079    0.0000 C   0  0  0  0  0  0  0  0  0  0  0  0
  -13.7694    5.5145    0.0000 O   0  0  0  0  0  0  0  0  0  0  0  0
  -11.7536    6.7834    0.0000 N   0  0  0  0  0  0  0  0  0  0  0  0
  -12.0978    8.2434    0.0000 C   0  0  0  0  0  0  0  0  0  0  0  0
  -13.5812    8.0210    0.0000 O   0  0  0  0  0  0  0  0  0  0  0  0
  -12.1969    9.7401    0.0000 C   0  0  0  0  0  0  0  0  0  0  0  0
  -13.6967    9.7649    0.0000 N   0  0  0  0  0  0  0  0  0  0  0  0
  -12.0483   11.2327    0.0000 C   0  0  0  0  0  0  0  0  0  0  0  0
  -11.6561   12.6805    0.0000 S   0  0  0  0  0  0  0  0  0  0  0  0
  -11.0309   14.0440    0.0000 S   0  0  0  0  0  0  0  0  0  0  0  0
  -10.1899   15.2860    0.0000 C   0  0  0  0  0  0  0  0  0  0  0  0
   -9.1558   16.3727    0.0000 C   0  0  0  0  0  0  0  0  0  0  0  0
  -10.1534   17.4929    0.0000 C   0  0  0  0  0  0  0  0  0  0  0  0
  -11.6223   17.1891    0.0000 O   0  0  0  0  0  0  0  0  0  0  0  0
   -9.6820   18.9169    0.0000 N   0  0  0  0  0  0  0  0  0  0  0  0
  -10.6795   20.0372    0.0000 C   0  0  0  0  0  0  0  0  0  0  0  0
  -10.2081   21.4612    0.0000 C   0  0  0  0  0  0  0  0  0  0  0  0
  -11.2057   22.5814    0.0000 O   0  0  0  0  0  0  0  0  0  0  0  0
  -12.1484   19.7334    0.0000 C   0  0  0  0  0  0  0  0  0  0  0  0
  -13.1460   20.8536    0.0000 N   0  0  0  0  0  0  0  0  0  0  0  0
  -12.6198   18.3094    0.0000 O   0  0  0  0  0  0  0  0  0  0  0  0
   -7.9570   17.2743    0.0000 N   0  0  0  0  0  0  0  0  0  0  0  0
   -6.6262   17.9663    0.0000 C   0  0  0  0  0  0  0  0  0  0  0  0
   -7.2060   19.3498    0.0000 O   0  0  0  0  0  0  0  0  0  0  0  0
  1  2  1  0
  2  3  1  0
  3  4  1  0
  5  4  1  6
  5  6  1  0
  6  7  1  0
  7  8  2  0
  7  9  1  0
  9 10  1  6
 10 11  1  0
 11 12  2  0
 12 13  1  0
 13 14  2  0
 14 15  1  0
  9 16  1  0
 16 17  1  0
 17 18  2  0
 17 19  1  0
 19 20  1  6
 20 21  1  0
 21 22  1  0
 22 23  2  0
 22 24  1  0
 19 25  1  0
 25 26  1  0
 26 27  2  0
 26 28  1  0
 28 29  1  6
 29 30  1  0
 29 31  1  0
 28 32  1  0
 32 33  1  0
 33 34  2  0
 33 35  1  0
 35 36  1  6
 36 37  1  0
 37 38  1  0
 38 39  2  0
 38 40  1  0
 35 41  1  0
 41 42  1  0
 42 43  2  0
 42 44  1  0
 44 45  1  6
 45 46  1  0
 44 47  1  0
 47 48  1  0
 48 49  2  0
 48 50  1  0
 50 51  1  6
 51 52  1  0
 52 53  1  0
 53 54  1  0
 54 55  1  0
 55 56  2  0
 55 57  1  0
 57 58  1  6
 58 59  1  0
 59 60  2  0
 60 61  1  0
 61 62  2  0
 62 63  1  0
 62 64  1  0
 64 65  2  0
 57 66  1  0
 66 67  1  0
 67 68  2  0
 67 69  1  0
 69 70  1  6
 70 71  1  0
 71 72  1  0
 72 73  2  0
 72 74  1  0
 69 75  1  0
 75 76  1  0
 76 77  2  0
 76 78  1  0
 78 79  1  6
 79 80  1  0
 78 81  1  0
 81 82  1  0
 82 83  2  0
 82 84  1  0
 84 85  1  1
 84 86  1  0
 86 87  1  0
 87 88  1  0
 88 89  1  0
 89 90  1  0
 90 91  1  1
 91 92  2  0
 91 93  1  0
 93 94  1  0
 94 95  1  6
 95 96  1  0
 94 97  1  0
 97 98  1  0
 97 99  2  0
 90100  1  0
100101  1  0
101102  2  0
101  5  1  0
 15 11  1  0
 54 50  1  0
 65 59  1  0
M  END
>  <Molecule ChEMBL ID>  (13) 
CHEMBL4077087

>  <Smiles>  (13) 
CSCC[C@@H]1NC(=O)[C@H](Cc2cnc[nH]2)NC(=O)[C@H](CCC(=O)O)NC(=O)[C@H](C(C)C)NC(=O)[C@H](CCC(=O)O)NC(=O)[C@H](CO)NC(=O)[C@@H]2CCCN2C(=O)[C@H](Cc2ccc(O)cc2)NC(=O)[C@H](CCC(=O)O)NC(=O)[C@H](CO)NC(=O)[C@@H](N)CSSC[C@@H](C(=O)N[C@@H](CO)C(N)=O)NC1=O

>  <pChEMBL Value>  (13) 
4.25

>  <similarity>  (13) 
0.08029197080291971

$$$$

     RDKit          2D

118119  0  0  0  0  0  0  0  0999 V2000
   -3.4862   28.9597    0.0000 C   0  0  0  0  0  0  0  0  0  0  0  0
   -4.6810   28.0528    0.0000 S   0  0  0  0  0  0  0  0  0  0  0  0
   -4.4930   26.5646    0.0000 C   0  0  0  0  0  0  0  0  0  0  0  0
   -5.6878   25.6577    0.0000 C   0  0  0  0  0  0  0  0  0  0  0  0
   -5.4998   24.1695    0.0000 C   0  0  0  0  0  0  0  0  0  0  0  0
   -4.0028   24.2637    0.0000 N   0  0  0  0  0  0  0  0  0  0  0  0
   -2.5057   24.1695    0.0000 C   0  0  0  0  0  0  0  0  0  0  0  0
   -2.3177   25.6577    0.0000 O   0  0  0  0  0  0  0  0  0  0  0  0
   -1.0323   23.8884    0.0000 C   0  0  0  0  0  0  0  0  0  0  0  0
   -0.6593   25.3413    0.0000 C   0  0  0  0  0  0  0  0  0  0  0  0
    0.7855   25.7447    0.0000 C   0  0  0  0  0  0  0  0  0  0  0  0
    1.1585   27.1976    0.0000 C   0  0  0  0  0  0  0  0  0  0  0  0
    1.8572   24.6952    0.0000 C   0  0  0  0  0  0  0  0  0  0  0  0
    0.3943   23.4249    0.0000 N   0  0  0  0  0  0  0  0  0  0  0  0
    1.7515   22.7862    0.0000 C   0  0  0  0  0  0  0  0  0  0  0  0
    2.4742   24.1007    0.0000 O   0  0  0  0  0  0  0  0  0  0  0  0
    3.0180   21.9825    0.0000 C   0  0  0  0  0  0  0  0  0  0  0  0
    3.8997   23.1960    0.0000 C   0  0  0  0  0  0  0  0  0  0  0  0
    5.3915   23.0392    0.0000 C   0  0  0  0  0  0  0  0  0  0  0  0
    6.2732   24.2528    0.0000 C   0  0  0  0  0  0  0  0  0  0  0  0
    5.6631   25.6231    0.0000 O   0  0  0  0  0  0  0  0  0  0  0  0
    7.7650   24.0960    0.0000 O   0  0  0  0  0  0  0  0  0  0  0  0
    4.1738   21.0264    0.0000 N   0  0  0  0  0  0  0  0  0  0  0  0
    5.2006   19.9329    0.0000 C   0  0  0  0  0  0  0  0  0  0  0  0
    6.3564   20.8891    0.0000 O   0  0  0  0  0  0  0  0  0  0  0  0
    6.0823   18.7194    0.0000 C   0  0  0  0  0  0  0  0  0  0  0  0
    7.3488   19.5231    0.0000 C   0  0  0  0  0  0  0  0  0  0  0  0
    8.6781   18.8282    0.0000 C   0  0  0  0  0  0  0  0  0  0  0  0
    7.2860   21.0218    0.0000 C   0  0  0  0  0  0  0  0  0  0  0  0
    6.8049   17.4049    0.0000 N   0  0  0  0  0  0  0  0  0  0  0  0
    7.3571   16.0103    0.0000 C   0  0  0  0  0  0  0  0  0  0  0  0
    8.7837   16.4738    0.0000 O   0  0  0  0  0  0  0  0  0  0  0  0
    7.7302   14.5574    0.0000 C   0  0  0  0  0  0  0  0  0  0  0  0
    9.2036   14.8385    0.0000 C   0  0  0  0  0  0  0  0  0  0  0  0
   10.1837   13.7030    0.0000 C   0  0  0  0  0  0  0  0  0  0  0  0
    9.6969   16.2550    0.0000 O   0  0  0  0  0  0  0  0  0  0  0  0
    7.9182   13.0692    0.0000 N   0  0  0  0  0  0  0  0  0  0  0  0
    7.9182   11.5692    0.0000 C   0  0  0  0  0  0  0  0  0  0  0  0
    9.4152   11.4750    0.0000 O   0  0  0  0  0  0  0  0  0  0  0  0
    7.7302   10.0810    0.0000 C   0  0  0  0  0  0  0  0  0  0  0  0
    9.2036    9.8000    0.0000 N   0  0  0  0  0  0  0  0  0  0  0  0
    9.6969    8.3834    0.0000 C   0  0  0  0  0  0  0  0  0  0  0  0
   11.1703    8.1023    0.0000 C   0  0  0  0  0  0  0  0  0  0  0  0
    8.7168    7.2479    0.0000 O   0  0  0  0  0  0  0  0  0  0  0  0
    7.3571    8.6282    0.0000 C   0  0  0  0  0  0  0  0  0  0  0  0
    6.8049    7.2335    0.0000 S   0  0  0  0  0  0  0  0  0  0  0  0
    6.0823    5.9190    0.0000 S   0  0  0  0  0  0  0  0  0  0  0  0
    5.2006    4.7055    0.0000 C   0  0  0  0  0  0  0  0  0  0  0  0
    4.1738    3.6121    0.0000 C   0  0  0  0  0  0  0  0  0  0  0  0
    5.2006    2.5186    0.0000 C   0  0  0  0  0  0  0  0  0  0  0  0
    4.7671    1.0826    0.0000 N   0  0  0  0  0  0  0  0  0  0  0  0
    6.6610    2.8611    0.0000 O   0  0  0  0  0  0  0  0  0  0  0  0
    3.0180    2.6559    0.0000 N   0  0  0  0  0  0  0  0  0  0  0  0
    1.7515    1.8522    0.0000 C   0  0  0  0  0  0  0  0  0  0  0  0
    2.4742    0.5377    0.0000 O   0  0  0  0  0  0  0  0  0  0  0  0
    0.3943    1.2135    0.0000 C   0  0  0  0  0  0  0  0  0  0  0  0
    1.2760    0.0000    0.0000 C   0  0  0  0  0  0  0  0  0  0  0  0
    0.3943   -1.2135    0.0000 C   0  0  0  0  0  0  0  0  0  0  0  0
   -1.0323   -0.7500    0.0000 C   0  0  0  0  0  0  0  0  0  0  0  0
   -1.0323    0.7500    0.0000 N   0  0  0  0  0  0  0  0  0  0  0  0
   -2.5057    0.4689    0.0000 C   0  0  0  0  0  0  0  0  0  0  0  0
   -2.3177   -1.0192    0.0000 O   0  0  0  0  0  0  0  0  0  0  0  0
   -4.0028    0.3747    0.0000 C   0  0  0  0  0  0  0  0  0  0  0  0
   -4.0028   -1.1253    0.0000 C   0  0  0  0  0  0  0  0  0  0  0  0
   -5.3018   -1.8753    0.0000 C   0  0  0  0  0  0  0  0  0  0  0  0
   -2.7037   -1.8753    0.0000 C   0  0  0  0  0  0  0  0  0  0  0  0
   -5.4998    0.4689    0.0000 N   0  0  0  0  0  0  0  0  0  0  0  0
   -6.9732    0.7500    0.0000 C   0  0  0  0  0  0  0  0  0  0  0  0
   -7.3463   -0.7029    0.0000 O   0  0  0  0  0  0  0  0  0  0  0  0
   -8.3998    1.2135    0.0000 C   0  0  0  0  0  0  0  0  0  0  0  0
   -8.9520   -0.1811    0.0000 C   0  0  0  0  0  0  0  0  0  0  0  0
  -10.4359   -0.4003    0.0000 C   0  0  0  0  0  0  0  0  0  0  0  0
  -10.9881   -1.7949    0.0000 C   0  0  0  0  0  0  0  0  0  0  0  0
  -11.3676    0.7753    0.0000 C   0  0  0  0  0  0  0  0  0  0  0  0
   -9.7571    1.8522    0.0000 N   0  0  0  0  0  0  0  0  0  0  0  0
  -11.0235    2.6559    0.0000 C   0  0  0  0  0  0  0  0  0  0  0  0
  -11.9052    1.4424    0.0000 O   0  0  0  0  0  0  0  0  0  0  0  0
  -12.1793    3.6121    0.0000 C   0  0  0  0  0  0  0  0  0  0  0  0
  -13.2061    2.5186    0.0000 C   0  0  0  0  0  0  0  0  0  0  0  0
  -14.6665    2.8611    0.0000 C   0  0  0  0  0  0  0  0  0  0  0  0
  -15.6933    1.7677    0.0000 C   0  0  0  0  0  0  0  0  0  0  0  0
  -17.1537    2.1102    0.0000 N   0  0  0  0  0  0  0  0  0  0  0  0
  -15.2598    0.3317    0.0000 O   0  0  0  0  0  0  0  0  0  0  0  0
  -13.2061    4.7055    0.0000 N   0  0  0  0  0  0  0  0  0  0  0  0
  -14.0878    5.9190    0.0000 C   0  0  0  0  0  0  0  0  0  0  0  0
  -15.3543    5.1153    0.0000 O   0  0  0  0  0  0  0  0  0  0  0  0
  -14.8104    7.2335    0.0000 C   0  0  0  0  0  0  0  0  0  0  0  0
  -16.1677    6.5948    0.0000 C   0  0  0  0  0  0  0  0  0  0  0  0
  -17.3994    7.4509    0.0000 C   0  0  0  0  0  0  0  0  0  0  0  0
  -18.7566    6.8122    0.0000 C   0  0  0  0  0  0  0  0  0  0  0  0
  -19.9884    7.6683    0.0000 C   0  0  0  0  0  0  0  0  0  0  0  0
  -21.3456    7.0296    0.0000 N   0  0  0  0  0  0  0  0  0  0  0  0
  -15.3626    8.6282    0.0000 N   0  0  0  0  0  0  0  0  0  0  0  0
  -15.7357   10.0810    0.0000 C   0  0  0  0  0  0  0  0  0  0  0  0
  -17.2091    9.8000    0.0000 O   0  0  0  0  0  0  0  0  0  0  0  0
  -15.9237   11.5692    0.0000 C   0  0  0  0  0  0  0  0  0  0  0  0
  -17.4207   11.4750    0.0000 C   0  0  0  0  0  0  0  0  0  0  0  0
  -15.9237   13.0692    0.0000 N   0  0  0  0  0  0  0  0  0  0  0  0
  -15.7357   14.5574    0.0000 C   0  0  0  0  0  0  0  0  0  0  0  0
  -17.2091   14.8385    0.0000 O   0  0  0  0  0  0  0  0  0  0  0  0
  -15.3626   16.0103    0.0000 C   0  0  0  0  0  0  0  0  0  0  0  0
  -16.7892   16.4738    0.0000 C   0  0  0  0  0  0  0  0  0  0  0  0
  -17.1011   17.9410    0.0000 C   0  0  0  0  0  0  0  0  0  0  0  0
  -17.9039   15.4701    0.0000 C   0  0  0  0  0  0  0  0  0  0  0  0
  -14.8104   17.4049    0.0000 N   0  0  0  0  0  0  0  0  0  0  0  0
  -14.0878   18.7194    0.0000 C   0  0  0  0  0  0  0  0  0  0  0  0
  -15.3543   19.5231    0.0000 O   0  0  0  0  0  0  0  0  0  0  0  0
  -13.2061   19.9329    0.0000 C   0  0  0  0  0  0  0  0  0  0  0  0
  -14.3619   20.8891    0.0000 C   0  0  0  0  0  0  0  0  0  0  0  0
  -14.1118   22.3680    0.0000 C   0  0  0  0  0  0  0  0  0  0  0  0
  -15.7678   20.3662    0.0000 O   0  0  0  0  0  0  0  0  0  0  0  0
  -12.1793   21.0264    0.0000 N   0  0  0  0  0  0  0  0  0  0  0  0
  -11.0235   21.9825    0.0000 C   0  0  0  0  0  0  0  0  0  0  0  0
  -11.9052   23.1960    0.0000 O   0  0  0  0  0  0  0  0  0  0  0  0
   -9.7571   22.7862    0.0000 C   0  0  0  0  0  0  0  0  0  0  0  0
   -8.3998   23.4249    0.0000 N   0  0  0  0  0  0  0  0  0  0  0  0
   -6.9732   23.8884    0.0000 C   0  0  0  0  0  0  0  0  0  0  0  0
   -7.3463   25.3413    0.0000 O   0  0  0  0  0  0  0  0  0  0  0  0
  1  2  1  0
  2  3  1  0
  3  4  1  0
  5  4  1  6
  5  6  1  0
  6  7  1  0
  7  8  2  0
  7  9  1  0
  9 10  1  6
 10 11  1  0
 11 12  1  0
 11 13  1  0
  9 14  1  0
 14 15  1  0
 15 16  2  0
 15 17  1  0
 17 18  1  6
 18 19  1  0
 19 20  1  0
 20 21  2  0
 20 22  1  0
 17 23  1  0
 23 24  1  0
 24 25  2  0
 24 26  1  0
 26 27  1  6
 27 28  1  0
 27 29  1  0
 26 30  1  0
 30 31  1  0
 31 32  2  0
 31 33  1  0
 33 34  1  0
 34 35  1  6
 34 36  1  0
 33 37  1  6
 37 38  1  0
 38 39  2  0
 38 40  1  0
 40 41  1  1
 41 42  1  0
 42 43  1  0
 42 44  2  0
 40 45  1  0
 45 46  1  0
 46 47  1  0
 47 48  1  0
 48 49  1  0
 49 50  1  1
 50 51  1  0
 50 52  2  0
 49 53  1  0
 53 54  1  0
 54 55  2  0
 54 56  1  0
 56 57  1  6
 57 58  1  0
 58 59  1  0
 59 60  1  0
 60 61  1  0
 61 62  2  0
 61 63  1  0
 63 64  1  6
 64 65  1  0
 64 66  1  0
 63 67  1  0
 67 68  1  0
 68 69  2  0
 68 70  1  0
 70 71  1  6
 71 72  1  0
 72 73  1  0
 72 74  1  0
 70 75  1  0
 75 76  1  0
 76 77  2  0
 76 78  1  0
 78 79  1  6
 79 80  1  0
 80 81  1  0
 81 82  1  0
 81 83  2  0
 78 84  1  0
 84 85  1  0
 85 86  2  0
 85 87  1  0
 87 88  1  6
 88 89  1  0
 89 90  1  0
 90 91  1  0
 91 92  1  0
 87 93  1  0
 93 94  1  0
 94 95  2  0
 94 96  1  0
 96 97  1  6
 96 98  1  0
 98 99  1  0
 99100  2  0
 99101  1  0
101102  1  6
102103  1  0
102104  1  0
101105  1  0
105106  1  0
106107  2  0
106108  1  0
108109  1  0
109110  1  6
109111  1  0
108112  1  6
112113  1  0
113114  2  0
113115  1  0
115116  1  0
116117  1  0
117118  2  0
117  5  1  0
 60 56  1  0
M  END
>  <Molecule ChEMBL ID>  (14) 
CHEMBL4092853

>  <Smiles>  (14) 
CSCC[C@@H]1NC(=O)[C@H](CC(C)C)NC(=O)[C@H](CCC(=O)O)NC(=O)[C@H](C(C)C)NC(=O)[C@H]([C@@H](C)O)NC(=O)[C@@H](NC(C)=O)CSSC[C@@H](C(N)=O)NC(=O)[C@@H]2CCCN2C(=O)[C@H](C(C)C)NC(=O)[C@H](CC(C)C)NC(=O)[C@H](CCC(N)=O)NC(=O)[C@H](CCCCN)NC(=O)[C@H](C)NC(=O)[C@H](C(C)C)NC(=O)[C@H]([C@@H](C)O)NC(=O)CNC1=O

>  <pChEMBL Value>  (14) 
4.98

>  <similarity>  (14) 
0.06338028169014084

$$$$

     RDKit          2D

 26 29  0  0  0  0  0  0  0  0999 V2000
   -2.9499    4.2246    0.0000 N   0  0  0  0  0  0  0  0  0  0  0  0
   -1.8351    3.2209    0.0000 C   0  0  0  0  0  0  0  0  0  0  0  0
   -0.4086    3.6844    0.0000 N   0  0  0  0  0  0  0  0  0  0  0  0
    0.7062    2.6807    0.0000 C   0  0  0  0  0  0  0  0  0  0  0  0
    2.1328    3.1443    0.0000 N   0  0  0  0  0  0  0  0  0  0  0  0
    2.4446    4.6115    0.0000 C   0  0  0  0  0  0  0  0  0  0  0  0
    3.8712    5.0750    0.0000 C   0  0  0  0  0  0  0  0  0  0  0  0
    4.1831    6.5422    0.0000 C   0  0  0  0  0  0  0  0  0  0  0  0
    3.0684    7.5459    0.0000 C   0  0  0  0  0  0  0  0  0  0  0  0
    1.6418    7.0824    0.0000 C   0  0  0  0  0  0  0  0  0  0  0  0
    0.5271    8.0861    0.0000 Br  0  0  0  0  0  0  0  0  0  0  0  0
    1.3299    5.6152    0.0000 C   0  0  0  0  0  0  0  0  0  0  0  0
    0.3943    1.2135    0.0000 C   0  0  0  0  0  0  0  0  0  0  0  0
    1.2760    0.0000    0.0000 C   0  0  0  0  0  0  0  0  0  0  0  0
    0.3943   -1.2135    0.0000 C   0  0  0  0  0  0  0  0  0  0  0  0
    0.8578   -2.6401    0.0000 C   0  0  0  0  0  0  0  0  0  0  0  0
   -0.1459   -3.7548    0.0000 C   0  0  0  0  0  0  0  0  0  0  0  0
    0.3177   -5.1814    0.0000 C   0  0  0  0  0  0  0  0  0  0  0  0
   -0.6860   -6.2961    0.0000 C   0  0  0  0  0  0  0  0  0  0  0  0
   -0.2225   -7.7227    0.0000 C   0  0  0  0  0  0  0  0  0  0  0  0
    1.2447   -8.0346    0.0000 C   0  0  0  0  0  0  0  0  0  0  0  0
    2.2484   -6.9199    0.0000 C   0  0  0  0  0  0  0  0  0  0  0  0
    1.7849   -5.4933    0.0000 C   0  0  0  0  0  0  0  0  0  0  0  0
   -1.0323   -0.7500    0.0000 N   0  0  0  0  0  0  0  0  0  0  0  0
   -1.0323    0.7500    0.0000 C   0  0  0  0  0  0  0  0  0  0  0  0
   -2.1470    1.7537    0.0000 N   0  0  0  0  0  0  0  0  0  0  0  0
  1  2  1  0
  2  3  2  0
  3  4  1  0
  4  5  1  0
  5  6  1  0
  6  7  2  0
  7  8  1  0
  8  9  2  0
  9 10  1  0
 10 11  1  0
 10 12  2  0
  4 13  2  0
 13 14  1  0
 14 15  2  0
 15 16  1  0
 16 17  1  0
 17 18  1  0
 18 19  2  0
 19 20  1  0
 20 21  2  0
 21 22  1  0
 22 23  2  0
 15 24  1  0
 24 25  1  0
 25 26  2  0
 26  2  1  0
 12  6  1  0
 25 13  1  0
 23 18  1  0
M  END
>  <Molecule ChEMBL ID>  (15) 
CHEMBL485320

>  <Smiles>  (15) 
Nc1nc(Nc2cccc(Br)c2)c2cc(CCc3ccccc3)[nH]c2n1

>  <pChEMBL Value>  (15) 
4.35

>  <similarity>  (15) 
0.13924050632911392

$$$$

     RDKit          2D

 24 27  0  0  0  0  0  0  0  0999 V2000
  -10.1640   -1.9336    0.0000 C   0  0  0  0  0  0  0  0  0  0  0  0
   -8.6640   -1.9336    0.0000 N   0  0  0  0  0  0  0  0  0  0  0  0
   -7.9140   -0.6346    0.0000 C   0  0  0  0  0  0  0  0  0  0  0  0
   -8.6640    0.6645    0.0000 N   0  0  0  0  0  0  0  0  0  0  0  0
   -7.9140    1.9635    0.0000 C   0  0  0  0  0  0  0  0  0  0  0  0
   -6.4140    1.9635    0.0000 C   0  0  0  0  0  0  0  0  0  0  0  0
   -5.6640    0.6645    0.0000 C   0  0  0  0  0  0  0  0  0  0  0  0
   -4.1640    0.6645    0.0000 C   0  0  0  0  0  0  0  0  0  0  0  0
   -3.4140    1.9635    0.0000 C   0  0  0  0  0  0  0  0  0  0  0  0
   -1.9140    1.9635    0.0000 C   0  0  0  0  0  0  0  0  0  0  0  0
   -1.0323    3.1771    0.0000 C   0  0  0  0  0  0  0  0  0  0  0  0
   -1.4958    4.6036    0.0000 C   0  0  0  0  0  0  0  0  0  0  0  0
   -0.4921    5.7184    0.0000 C   0  0  0  0  0  0  0  0  0  0  0  0
   -0.9556    7.1449    0.0000 C   0  0  0  0  0  0  0  0  0  0  0  0
   -2.4229    7.4568    0.0000 C   0  0  0  0  0  0  0  0  0  0  0  0
   -3.4266    6.3421    0.0000 C   0  0  0  0  0  0  0  0  0  0  0  0
   -2.9630    4.9155    0.0000 C   0  0  0  0  0  0  0  0  0  0  0  0
    0.3943    2.7135    0.0000 N   0  0  0  0  0  0  0  0  0  0  0  0
    0.3943    1.2135    0.0000 C   0  0  0  0  0  0  0  0  0  0  0  0
    1.2760    0.0000    0.0000 S   0  0  0  0  0  0  0  0  0  0  0  0
    0.3943   -1.2135    0.0000 C   0  0  0  0  0  0  0  0  0  0  0  0
   -1.0323   -0.7500    0.0000 C   0  0  0  0  0  0  0  0  0  0  0  0
   -1.0323    0.7500    0.0000 N   0  0  0  0  0  0  0  0  0  0  0  0
   -6.4140   -0.6346    0.0000 N   0  0  0  0  0  0  0  0  0  0  0  0
  1  2  1  0
  2  3  1  0
  3  4  2  0
  4  5  1  0
  5  6  2  0
  6  7  1  0
  7  8  1  0
  8  9  2  0
  9 10  1  0
 10 11  2  0
 11 12  1  0
 12 13  2  0
 13 14  1  0
 14 15  2  0
 15 16  1  0
 16 17  2  0
 11 18  1  0
 18 19  2  0
 19 20  1  0
 20 21  1  0
 21 22  2  0
 22 23  1  0
  7 24  2  0
 24  3  1  0
 23 10  1  0
 17 12  1  0
 23 19  1  0
M  END
>  <Molecule ChEMBL ID>  (16) 
CHEMBL497290

>  <Smiles>  (16) 
CNc1nccc(/C=C/c2c(-c3ccccc3)nc3sccn23)n1

>  <pChEMBL Value>  (16) 
4.11

>  <similarity>  (16) 
0.0963855421686747

$$$$

     RDKit          2D

 76 79  0  0  0  0  0  0  0  0999 V2000
   -0.0000  -12.9904    0.0000 C   0  0  0  0  0  0  0  0  0  0  0  0
   -0.7500  -11.6913    0.0000 C   0  0  0  0  0  0  0  0  0  0  0  0
   -1.5000  -10.3923    0.0000 C   0  0  0  0  0  0  0  0  0  0  0  0
   -3.0000  -10.3923    0.0000 C   0  0  0  0  0  0  0  0  0  0  0  0
   -3.7500   -9.0933    0.0000 N   0  0  0  0  0  0  0  0  0  0  0  0
   -5.2500   -9.0933    0.0000 C   0  0  0  0  0  0  0  0  0  0  0  0
   -6.0000  -10.3923    0.0000 O   0  0  0  0  0  0  0  0  0  0  0  0
   -6.0000   -7.7942    0.0000 C   0  0  0  0  0  0  0  0  0  0  0  0
   -7.5000   -7.7942    0.0000 C   0  0  0  0  0  0  0  0  0  0  0  0
   -8.2500   -6.4952    0.0000 C   0  0  0  0  0  0  0  0  0  0  0  0
   -9.7500   -6.4952    0.0000 C   0  0  0  0  0  0  0  0  0  0  0  0
  -10.5000   -5.1962    0.0000 C   0  0  0  0  0  0  0  0  0  0  0  0
   -9.7500   -3.8971    0.0000 C   0  0  0  0  0  0  0  0  0  0  0  0
  -10.5000   -2.5981    0.0000 O   0  0  0  0  0  0  0  0  0  0  0  0
   -8.2500   -3.8971    0.0000 C   0  0  0  0  0  0  0  0  0  0  0  0
   -7.5000   -5.1962    0.0000 C   0  0  0  0  0  0  0  0  0  0  0  0
   -5.2500   -6.4952    0.0000 N   0  0  0  0  0  0  0  0  0  0  0  0
   -3.7500   -6.4952    0.0000 C   0  0  0  0  0  0  0  0  0  0  0  0
   -3.0000   -7.7942    0.0000 O   0  0  0  0  0  0  0  0  0  0  0  0
   -3.0000   -5.1962    0.0000 C   0  0  0  0  0  0  0  0  0  0  0  0
   -1.5000   -5.1962    0.0000 C   0  0  0  0  0  0  0  0  0  0  0  0
   -0.7500   -3.8971    0.0000 C   0  0  0  0  0  0  0  0  0  0  0  0
   -1.5000   -2.5981    0.0000 C   0  0  0  0  0  0  0  0  0  0  0  0
   -0.7500   -1.2990    0.0000 C   0  0  0  0  0  0  0  0  0  0  0  0
    0.7500   -1.2990    0.0000 C   0  0  0  0  0  0  0  0  0  0  0  0
    1.5000    0.0000    0.0000 O   0  0  0  0  0  0  0  0  0  0  0  0
    1.5000   -2.5981    0.0000 C   0  0  0  0  0  0  0  0  0  0  0  0
    0.7500   -3.8971    0.0000 C   0  0  0  0  0  0  0  0  0  0  0  0
   -3.7500   -3.8971    0.0000 N   0  0  0  0  0  0  0  0  0  0  0  0
   -5.2500   -3.8971    0.0000 C   0  0  0  0  0  0  0  0  0  0  0  0
   -6.0000   -5.1962    0.0000 O   0  0  0  0  0  0  0  0  0  0  0  0
   -6.0000   -2.5981    0.0000 C   0  0  0  0  0  0  0  0  0  0  0  0
   -7.5000   -2.5981    0.0000 C   0  0  0  0  0  0  0  0  0  0  0  0
   -8.2500   -1.2990    0.0000 C   0  0  0  0  0  0  0  0  0  0  0  0
   -7.5000    0.0000    0.0000 C   0  0  0  0  0  0  0  0  0  0  0  0
   -8.2500    1.2990    0.0000 C   0  0  0  0  0  0  0  0  0  0  0  0
   -9.7500    1.2990    0.0000 C   0  0  0  0  0  0  0  0  0  0  0  0
  -10.5000    0.0000    0.0000 C   0  0  0  0  0  0  0  0  0  0  0  0
   -9.7500   -1.2990    0.0000 C   0  0  0  0  0  0  0  0  0  0  0  0
   -5.2500   -1.2990    0.0000 N   0  0  0  0  0  0  0  0  0  0  0  0
   -3.7500   -1.2990    0.0000 C   0  0  0  0  0  0  0  0  0  0  0  0
   -3.0000   -2.5981    0.0000 O   0  0  0  0  0  0  0  0  0  0  0  0
   -3.0000    0.0000    0.0000 C   0  0  0  0  0  0  0  0  0  0  0  0
   -1.5000   -0.0000    0.0000 C   0  0  0  0  0  0  0  0  0  0  0  0
   -0.7500    1.2990    0.0000 C   0  0  0  0  0  0  0  0  0  0  0  0
    0.7500    1.2990    0.0000 S   0  0  0  0  0  0  0  0  0  0  0  0
    1.5000    2.5981    0.0000 C   0  0  0  0  0  0  0  0  0  0  0  0
   -3.7500    1.2990    0.0000 N   0  0  0  0  0  0  0  0  0  0  0  0
   -3.0000    2.5981    0.0000 C   0  0  0  0  0  0  0  0  0  0  0  0
   -1.5000    2.5981    0.0000 O   0  0  0  0  0  0  0  0  0  0  0  0
   -3.7500    3.8971    0.0000 C   0  0  0  0  0  0  0  0  0  0  0  0
   -3.0000    5.1962    0.0000 C   0  0  0  0  0  0  0  0  0  0  0  0
   -3.7500    6.4952    0.0000 C   0  0  0  0  0  0  0  0  0  0  0  0
   -3.0000    7.7942    0.0000 C   0  0  0  0  0  0  0  0  0  0  0  0
   -3.7500    9.0933    0.0000 N   0  0  0  0  0  0  0  0  0  0  0  0
   -1.5000    7.7942    0.0000 O   0  0  0  0  0  0  0  0  0  0  0  0
   -5.2500    3.8971    0.0000 N   0  0  0  0  0  0  0  0  0  0  0  0
   -6.0000    5.1962    0.0000 C   0  0  0  0  0  0  0  0  0  0  0  0
   -5.2500    6.4952    0.0000 O   0  0  0  0  0  0  0  0  0  0  0  0
   -7.5000    5.1962    0.0000 C   0  0  0  0  0  0  0  0  0  0  0  0
   -8.2500    6.4952    0.0000 C   0  0  0  0  0  0  0  0  0  0  0  0
   -7.5000    7.7942    0.0000 C   0  0  0  0  0  0  0  0  0  0  0  0
   -8.1101    9.1645    0.0000 C   0  0  0  0  0  0  0  0  0  0  0  0
   -6.9954   10.1682    0.0000 N   0  0  0  0  0  0  0  0  0  0  0  0
   -5.6963    9.4182    0.0000 C   0  0  0  0  0  0  0  0  0  0  0  0
   -6.0082    7.9510    0.0000 N   0  0  0  0  0  0  0  0  0  0  0  0
   -8.2500    3.8971    0.0000 N   0  0  0  0  0  0  0  0  0  0  0  0
   -9.7500    3.8971    0.0000 C   0  0  0  0  0  0  0  0  0  0  0  0
  -10.5000    5.1962    0.0000 O   0  0  0  0  0  0  0  0  0  0  0  0
  -10.5000    2.5981    0.0000 C   0  0  0  0  0  0  0  0  0  0  0  0
  -12.0000    2.5981    0.0000 N   0  0  0  0  0  0  0  0  0  0  0  0
  -12.7500    1.2990    0.0000 N   0  0  0  0  0  4  0  0  0  0  0  0
  -13.5000    0.0000    0.0000 N   0  0  0  0  0  2  0  0  0  0  0  0
   -3.7500  -11.6913    0.0000 C   0  0  0  0  0  0  0  0  0  0  0  0
   -3.0000  -12.9904    0.0000 N   0  0  0  0  0  0  0  0  0  0  0  0
   -5.2500  -11.6913    0.0000 O   0  0  0  0  0  0  0  0  0  0  0  0
  1  2  3  0
  2  3  1  0
  4  3  1  6
  4  5  1  0
  5  6  1  0
  6  7  2  0
  6  8  1  0
  8  9  1  6
  9 10  1  0
 10 11  2  0
 11 12  1  0
 12 13  2  0
 13 14  1  0
 13 15  1  0
 15 16  2  0
  8 17  1  0
 17 18  1  0
 18 19  2  0
 18 20  1  0
 20 21  1  1
 21 22  1  0
 22 23  2  0
 23 24  1  0
 24 25  2  0
 25 26  1  0
 25 27  1  0
 27 28  2  0
 20 29  1  0
 29 30  1  0
 30 31  2  0
 30 32  1  0
 32 33  1  6
 33 34  1  0
 34 35  2  0
 35 36  1  0
 36 37  2  0
 37 38  1  0
 38 39  2  0
 32 40  1  0
 40 41  1  0
 41 42  2  0
 41 43  1  0
 43 44  1  1
 44 45  1  0
 45 46  1  0
 46 47  1  0
 43 48  1  0
 48 49  1  0
 49 50  2  0
 49 51  1  0
 51 52  1  1
 52 53  1  0
 53 54  1  0
 54 55  1  0
 54 56  2  0
 51 57  1  0
 57 58  1  0
 58 59  2  0
 58 60  1  0
 60 61  1  1
 61 62  1  0
 62 63  2  0
 63 64  1  0
 64 65  2  0
 65 66  1  0
 60 67  1  0
 67 68  1  0
 68 69  2  0
 68 70  1  0
 70 71  1  0
 71 72  2  0
 72 73  2  0
  4 74  1  0
 74 75  1  0
 74 76  2  0
 16 10  1  0
 28 22  1  0
 39 34  1  0
 66 62  1  0
M  CHG  2  72   1  73  -1
M  END
>  <Molecule ChEMBL ID>  (17) 
CHEMBL2372108

>  <Smiles>  (17) 
C#CC[C@@H](NC(=O)[C@H](Cc1ccc(O)cc1)NC(=O)[C@H](Cc1ccc(O)cc1)NC(=O)[C@H](Cc1ccccc1)NC(=O)[C@H](CCSC)NC(=O)[C@H](CCC(N)=O)NC(=O)[C@H](Cc1cnc[nH]1)NC(=O)CN=[N+]=[N-])C(N)=O

>  <pChEMBL Value>  (17) 
4.71

>  <similarity>  (17) 
0.12727272727272726

$$$$

     RDKit          2D

 22 25  0  0  0  0  0  0  0  0999 V2000
   -2.6401   -5.5255    0.0000 C   0  0  0  0  0  0  0  0  0  0  0  0
   -1.2135   -5.9890    0.0000 N   0  0  0  0  0  0  0  0  0  0  0  0
   -0.7500   -7.4156    0.0000 C   0  0  0  0  0  0  0  0  0  0  0  0
    0.7500   -7.4156    0.0000 N   0  0  0  0  0  0  0  0  0  0  0  0
    1.2135   -5.9890    0.0000 C   0  0  0  0  0  0  0  0  0  0  0  0
    2.6401   -5.5255    0.0000 C   0  0  0  0  0  0  0  0  0  0  0  0
    3.7548   -6.5291    0.0000 C   0  0  0  0  0  0  0  0  0  0  0  0
    5.1814   -6.0656    0.0000 C   0  0  0  0  0  0  0  0  0  0  0  0
    5.4933   -4.5984    0.0000 C   0  0  0  0  0  0  0  0  0  0  0  0
    4.3786   -3.5947    0.0000 C   0  0  0  0  0  0  0  0  0  0  0  0
    2.9520   -4.0582    0.0000 C   0  0  0  0  0  0  0  0  0  0  0  0
   -0.0000   -5.1073    0.0000 C   0  0  0  0  0  0  0  0  0  0  0  0
   -0.0000   -3.6073    0.0000 C   0  0  0  0  0  0  0  0  0  0  0  0
    1.2135   -2.7256    0.0000 C   0  0  0  0  0  0  0  0  0  0  0  0
    0.7500   -1.2990    0.0000 C   0  0  0  0  0  0  0  0  0  0  0  0
    1.5000    0.0000    0.0000 C   0  0  0  0  0  0  0  0  0  0  0  0
    3.0000    0.0000    0.0000 N   0  0  0  0  0  0  0  0  0  0  0  0
    0.7500    1.2990    0.0000 N   0  0  0  0  0  0  0  0  0  0  0  0
   -0.7500    1.2990    0.0000 C   0  0  0  0  0  0  0  0  0  0  0  0
   -1.5000    0.0000    0.0000 N   0  0  0  0  0  0  0  0  0  0  0  0
   -0.7500   -1.2990    0.0000 C   0  0  0  0  0  0  0  0  0  0  0  0
   -1.2135   -2.7256    0.0000 S   0  0  0  0  0  0  0  0  0  0  0  0
  1  2  1  0
  2  3  1  0
  3  4  2  0
  4  5  1  0
  5  6  1  0
  6  7  2  0
  7  8  1  0
  8  9  2  0
  9 10  1  0
 10 11  2  0
  5 12  2  0
 12 13  1  0
 13 14  2  0
 14 15  1  0
 15 16  2  0
 16 17  1  0
 16 18  1  0
 18 19  2  0
 19 20  1  0
 20 21  2  0
 21 22  1  0
 12  2  1  0
 22 13  1  0
 11  6  1  0
 21 15  1  0
M  END
>  <Molecule ChEMBL ID>  (18) 
CHEMBL1079428

>  <Smiles>  (18) 
Cn1cnc(-c2ccccc2)c1-c1cc2c(N)ncnc2s1

>  <pChEMBL Value>  (18) 
4.66

>  <similarity>  (18) 
0.10256410256410256

$$$$

     RDKit          2D

 26 29  0  0  0  0  0  0  0  0999 V2000
   -2.9499    4.2246    0.0000 N   0  0  0  0  0  0  0  0  0  0  0  0
   -1.8351    3.2209    0.0000 C   0  0  0  0  0  0  0  0  0  0  0  0
   -0.4086    3.6844    0.0000 N   0  0  0  0  0  0  0  0  0  0  0  0
    0.7062    2.6807    0.0000 C   0  0  0  0  0  0  0  0  0  0  0  0
    2.1328    3.1443    0.0000 N   0  0  0  0  0  0  0  0  0  0  0  0
    2.4446    4.6115    0.0000 C   0  0  0  0  0  0  0  0  0  0  0  0
    3.8712    5.0750    0.0000 C   0  0  0  0  0  0  0  0  0  0  0  0
    4.1831    6.5422    0.0000 C   0  0  0  0  0  0  0  0  0  0  0  0
    3.0684    7.5459    0.0000 C   0  0  0  0  0  0  0  0  0  0  0  0
    1.6418    7.0824    0.0000 C   0  0  0  0  0  0  0  0  0  0  0  0
    0.5271    8.0861    0.0000 Br  0  0  0  0  0  0  0  0  0  0  0  0
    1.3299    5.6152    0.0000 C   0  0  0  0  0  0  0  0  0  0  0  0
    0.3943    1.2135    0.0000 C   0  0  0  0  0  0  0  0  0  0  0  0
    1.2760    0.0000    0.0000 C   0  0  0  0  0  0  0  0  0  0  0  0
    0.3943   -1.2135    0.0000 C   0  0  0  0  0  0  0  0  0  0  0  0
    0.8578   -2.6401    0.0000 C   0  0  0  0  0  0  0  0  0  0  0  0
   -0.1459   -3.7548    0.0000 C   0  0  0  0  0  0  0  0  0  0  0  0
    0.3177   -5.1814    0.0000 C   0  0  0  0  0  0  0  0  0  0  0  0
   -0.6860   -6.2961    0.0000 C   0  0  0  0  0  0  0  0  0  0  0  0
   -0.2225   -7.7227    0.0000 C   0  0  0  0  0  0  0  0  0  0  0  0
    1.2447   -8.0346    0.0000 C   0  0  0  0  0  0  0  0  0  0  0  0
    2.2484   -6.9199    0.0000 C   0  0  0  0  0  0  0  0  0  0  0  0
    1.7849   -5.4933    0.0000 C   0  0  0  0  0  0  0  0  0  0  0  0
   -1.0323   -0.7500    0.0000 N   0  0  0  0  0  0  0  0  0  0  0  0
   -1.0323    0.7500    0.0000 C   0  0  0  0  0  0  0  0  0  0  0  0
   -2.1470    1.7537    0.0000 N   0  0  0  0  0  0  0  0  0  0  0  0
  1  2  1  0
  2  3  2  0
  3  4  1  0
  4  5  1  0
  5  6  1  0
  6  7  2  0
  7  8  1  0
  8  9  2  0
  9 10  1  0
 10 11  1  0
 10 12  2  0
  4 13  2  0
 13 14  1  0
 14 15  2  0
 15 16  1  0
 16 17  1  0
 17 18  1  0
 18 19  2  0
 19 20  1  0
 20 21  2  0
 21 22  1  0
 22 23  2  0
 15 24  1  0
 24 25  1  0
 25 26  2  0
 26  2  1  0
 12  6  1  0
 25 13  1  0
 23 18  1  0
M  END
>  <Molecule ChEMBL ID>  (19) 
CHEMBL485320

>  <Smiles>  (19) 
Nc1nc(Nc2cccc(Br)c2)c2cc(CCc3ccccc3)[nH]c2n1

>  <pChEMBL Value>  (19) 
4.35

>  <similarity>  (19) 
0.13924050632911392

$$$$

     RDKit          2D

145152  0  0  0  0  0  0  0  0999 V2000
   -2.6183  -10.3932    0.0000 C   0  0  0  0  0  0  0  0  0  0  0  0
   -1.3463   -9.5982    0.0000 C   0  0  0  0  0  0  0  0  0  0  0  0
   -0.2316  -10.6019    0.0000 C   0  0  0  0  0  0  0  0  0  0  0  0
   -0.8892  -11.9501    0.0000 C   0  0  0  0  0  0  0  0  0  0  0  0
    1.1950  -10.1384    0.0000 C   0  0  0  0  0  0  0  0  0  0  0  0
    2.3097  -11.1421    0.0000 N   0  0  0  0  0  0  0  0  0  0  0  0
    1.9979  -12.6093    0.0000 C   0  0  0  0  0  0  0  0  0  0  0  0
    0.6384  -13.2433    0.0000 O   0  0  0  0  0  0  0  0  0  0  0  0
    3.1126  -13.6130    0.0000 C   0  0  0  0  0  0  0  0  0  0  0  0
    2.8007  -15.0802    0.0000 C   0  0  0  0  0  0  0  0  0  0  0  0
    3.9154  -16.0839    0.0000 C   0  0  0  0  0  0  0  0  0  0  0  0
    3.6036  -17.5511    0.0000 C   0  0  0  0  0  0  0  0  0  0  0  0
    2.1770  -18.0147    0.0000 O   0  0  0  0  0  0  0  0  0  0  0  0
    4.7183  -18.5548    0.0000 O   0  0  0  0  0  0  0  0  0  0  0  0
    4.5392  -13.1495    0.0000 N   0  0  0  0  0  0  0  0  0  0  0  0
    5.6539  -14.1532    0.0000 C   0  0  0  0  0  0  0  0  0  0  0  0
    5.3420  -15.6204    0.0000 O   0  0  0  0  0  0  0  0  0  0  0  0
    7.0805  -13.6896    0.0000 C   0  0  0  0  0  0  0  0  0  0  0  0
    8.1952  -14.6933    0.0000 C   0  0  0  0  0  0  0  0  0  0  0  0
    9.6218  -14.2298    0.0000 C   0  0  0  0  0  0  0  0  0  0  0  0
   10.7365  -15.2335    0.0000 C   0  0  0  0  0  0  0  0  0  0  0  0
   12.1631  -14.7700    0.0000 C   0  0  0  0  0  0  0  0  0  0  0  0
   12.4749  -13.3028    0.0000 C   0  0  0  0  0  0  0  0  0  0  0  0
   13.9015  -12.8392    0.0000 O   0  0  0  0  0  0  0  0  0  0  0  0
   11.3602  -12.2991    0.0000 C   0  0  0  0  0  0  0  0  0  0  0  0
    9.9336  -12.7626    0.0000 C   0  0  0  0  0  0  0  0  0  0  0  0
    7.3923  -12.2224    0.0000 N   0  0  0  0  0  0  0  0  0  0  0  0
    6.2776  -11.2187    0.0000 C   0  0  0  0  0  0  0  0  0  0  0  0
    4.8510  -11.6822    0.0000 O   0  0  0  0  0  0  0  0  0  0  0  0
    6.5895   -9.7515    0.0000 C   0  0  0  0  0  0  0  0  0  0  0  0
    5.4748   -8.7478    0.0000 N   0  0  0  0  0  0  0  0  0  0  0  0
    5.7866   -7.2806    0.0000 C   0  0  0  0  0  0  0  0  0  0  0  0
    7.2132   -6.8171    0.0000 O   0  0  0  0  0  0  0  0  0  0  0  0
    4.6719   -6.2769    0.0000 C   0  0  0  0  0  0  0  0  0  0  0  0
    3.2453   -6.7404    0.0000 N   0  0  0  0  0  0  0  0  0  0  0  0
    4.9838   -4.8097    0.0000 C   0  0  0  0  0  0  0  0  0  0  0  0
    3.8691   -3.8060    0.0000 C   0  0  0  0  0  0  0  0  0  0  0  0
    4.1809   -2.3387    0.0000 N   0  0  0  0  0  0  0  0  0  0  0  0
    2.4425   -4.2695    0.0000 O   0  0  0  0  0  0  0  0  0  0  0  0
    1.5069   -8.6712    0.0000 C   0  0  0  0  0  0  0  0  0  0  0  0
    2.9335   -8.2076    0.0000 O   0  0  0  0  0  0  0  0  0  0  0  0
    0.3922   -7.6675    0.0000 N   0  0  0  0  0  0  0  0  0  0  0  0
   -1.0344   -8.1310    0.0000 C   0  0  0  0  0  0  0  0  0  0  0  0
   -1.3463   -9.5982    0.0000 C   0  0  0  0  0  0  0  0  0  0  0  0
   -0.2316  -10.6019    0.0000 C   0  0  0  0  0  0  0  0  0  0  0  0
   -0.5434  -12.0691    0.0000 C   0  0  0  0  0  0  0  0  0  0  0  0
   -1.8155  -12.8641    0.0000 O   0  0  0  0  0  0  0  0  0  0  0  0
    0.4406  -13.2012    0.0000 O   0  0  0  0  0  0  0  0  0  0  0  0
   -2.1491   -7.1273    0.0000 C   0  0  0  0  0  0  0  0  0  0  0  0
   -3.4212   -7.9222    0.0000 O   0  0  0  0  0  0  0  0  0  0  0  0
   -1.8373   -5.6601    0.0000 N   0  0  0  0  0  0  0  0  0  0  0  0
   -2.9520   -4.6564    0.0000 C   0  0  0  0  0  0  0  0  0  0  0  0
   -2.6401   -3.1891    0.0000 C   0  0  0  0  0  0  0  0  0  0  0  0
   -1.2135   -2.7256    0.0000 C   0  0  0  0  0  0  0  0  0  0  0  0
    0.0000   -3.6073    0.0000 C   0  0  0  0  0  0  0  0  0  0  0  0
    1.2135   -2.7256    0.0000 N   0  0  0  0  0  0  0  0  0  0  0  0
    0.7500   -1.2990    0.0000 C   0  0  0  0  0  0  0  0  0  0  0  0
    1.5000    0.0000    0.0000 C   0  0  0  0  0  0  0  0  0  0  0  0
    0.7500    1.2990    0.0000 C   0  0  0  0  0  0  0  0  0  0  0  0
   -0.7500    1.2990    0.0000 C   0  0  0  0  0  0  0  0  0  0  0  0
   -1.5000    0.0000    0.0000 C   0  0  0  0  0  0  0  0  0  0  0  0
   -0.7500   -1.2990    0.0000 C   0  0  0  0  0  0  0  0  0  0  0  0
   -4.3786   -5.1199    0.0000 C   0  0  0  0  0  0  0  0  0  0  0  0
   -5.7030   -4.4158    0.0000 O   0  0  0  0  0  0  0  0  0  0  0  0
   -4.6904   -6.5871    0.0000 N   0  0  0  0  0  0  0  0  0  0  0  0
   -6.1170   -7.0506    0.0000 C   0  0  0  0  0  0  0  0  0  0  0  0
   -6.4289   -8.5179    0.0000 C   0  0  0  0  0  0  0  0  0  0  0  0
   -7.8555   -8.9814    0.0000 C   0  0  0  0  0  0  0  0  0  0  0  0
   -8.9702   -7.9777    0.0000 C   0  0  0  0  0  0  0  0  0  0  0  0
  -10.3968   -8.4412    0.0000 C   0  0  0  0  0  0  0  0  0  0  0  0
  -10.7086   -9.9084    0.0000 C   0  0  0  0  0  0  0  0  0  0  0  0
  -12.1352  -10.3720    0.0000 O   0  0  0  0  0  0  0  0  0  0  0  0
   -9.5939  -10.9121    0.0000 C   0  0  0  0  0  0  0  0  0  0  0  0
   -8.1673  -10.4486    0.0000 C   0  0  0  0  0  0  0  0  0  0  0  0
   -7.2317   -6.0469    0.0000 C   0  0  0  0  0  0  0  0  0  0  0  0
   -7.2842   -4.5479    0.0000 O   0  0  0  0  0  0  0  0  0  0  0  0
   -8.6583   -6.5105    0.0000 N   0  0  0  0  0  0  0  0  0  0  0  0
   -9.7730   -5.5068    0.0000 C   0  0  0  0  0  0  0  0  0  0  0  0
  -11.1996   -5.9703    0.0000 C   0  0  0  0  0  0  0  0  0  0  0  0
  -12.3143   -4.9666    0.0000 O   0  0  0  0  0  0  0  0  0  0  0  0
   -9.4612   -4.0396    0.0000 C   0  0  0  0  0  0  0  0  0  0  0  0
   -8.0346   -3.5760    0.0000 O   0  0  0  0  0  0  0  0  0  0  0  0
  -10.5759   -3.0359    0.0000 N   0  0  0  0  0  0  0  0  0  0  0  0
  -10.2640   -1.5686    0.0000 C   0  0  0  0  0  0  0  0  0  0  0  0
  -11.3787   -0.5649    0.0000 C   0  0  0  0  0  0  0  0  0  0  0  0
  -11.0669    0.9023    0.0000 C   0  0  0  0  0  0  0  0  0  0  0  0
   -9.6965    1.5124    0.0000 C   0  0  0  0  0  0  0  0  0  0  0  0
   -9.8533    3.0042    0.0000 N   0  0  0  0  0  0  0  0  0  0  0  0
  -11.3206    3.3160    0.0000 C   0  0  0  0  0  0  0  0  0  0  0  0
  -12.0706    4.6151    0.0000 C   0  0  0  0  0  0  0  0  0  0  0  0
  -13.5706    4.6151    0.0000 C   0  0  0  0  0  0  0  0  0  0  0  0
  -14.3206    3.3160    0.0000 C   0  0  0  0  0  0  0  0  0  0  0  0
  -13.5706    2.0170    0.0000 C   0  0  0  0  0  0  0  0  0  0  0  0
  -12.0706    2.0170    0.0000 C   0  0  0  0  0  0  0  0  0  0  0  0
   -8.8374   -1.1051    0.0000 C   0  0  0  0  0  0  0  0  0  0  0  0
   -7.7227   -2.1088    0.0000 O   0  0  0  0  0  0  0  0  0  0  0  0
   -8.5256    0.3621    0.0000 N   0  0  0  0  0  0  0  0  0  0  0  0
   -7.0990    0.8256    0.0000 C   0  0  0  0  0  0  0  0  0  0  0  0
   -5.9843   -0.1781    0.0000 C   0  0  0  0  0  0  0  0  0  0  0  0
   -6.2961   -1.6453    0.0000 O   0  0  0  0  0  0  0  0  0  0  0  0
   -4.5577    0.2855    0.0000 N   0  0  0  0  0  0  0  0  0  0  0  0
   -3.4430   -0.7182    0.0000 C   0  0  0  0  0  0  0  0  0  0  0  0
   -3.7548   -2.1855    0.0000 C   0  0  0  0  0  0  0  0  0  0  0  0
   -2.4304   -2.8896    0.0000 O   0  0  0  0  0  0  0  0  0  0  0  0
   -5.1814   -2.6490    0.0000 N   0  0  0  0  0  0  0  0  0  0  0  0
   -5.4933   -4.1162    0.0000 C   0  0  0  0  0  0  0  0  0  0  0  0
   -6.9199   -4.5797    0.0000 C   0  0  0  0  0  0  0  0  0  0  0  0
   -7.2317   -6.0469    0.0000 C   0  0  0  0  0  0  0  0  0  0  0  0
   -6.2280   -7.1617    0.0000 C   0  0  0  0  0  0  0  0  0  0  0  0
   -6.9780   -8.4607    0.0000 N   0  0  0  0  0  0  0  0  0  0  0  0
   -8.4453   -8.1488    0.0000 C   0  0  0  0  0  0  0  0  0  0  0  0
   -8.6021   -6.6571    0.0000 N   0  0  0  0  0  0  0  0  0  0  0  0
   -4.3786   -5.1199    0.0000 C   0  0  0  0  0  0  0  0  0  0  0  0
   -2.8822   -5.0153    0.0000 O   0  0  0  0  0  0  0  0  0  0  0  0
   -4.6904   -6.5871    0.0000 N   0  0  0  0  0  0  0  0  0  0  0  0
   -3.5757   -7.5908    0.0000 C   0  0  0  0  0  0  0  0  0  0  0  0
   -3.8876   -9.0580    0.0000 C   0  0  0  0  0  0  0  0  0  0  0  0
   -5.3142   -9.5216    0.0000 O   0  0  0  0  0  0  0  0  0  0  0  0
   -2.7729  -10.0617    0.0000 N   0  0  0  0  0  0  0  0  0  0  0  0
   -3.0847  -11.5290    0.0000 C   0  0  0  0  0  0  0  0  0  0  0  0
   -1.9700  -12.5326    0.0000 C   0  0  0  0  0  0  0  0  0  0  0  0
   -2.2819  -13.9999    0.0000 C   0  0  0  0  0  0  0  0  0  0  0  0
   -1.1672  -15.0036    0.0000 S   0  0  0  0  0  0  0  0  0  0  0  0
   -1.4790  -16.4708    0.0000 C   0  0  0  0  0  0  0  0  0  0  0  0
   -4.5113  -11.9925    0.0000 C   0  0  0  0  0  0  0  0  0  0  0  0
   -5.6260  -10.9888    0.0000 O   0  0  0  0  0  0  0  0  0  0  0  0
   -4.8232  -13.4597    0.0000 N   0  0  0  0  0  0  0  0  0  0  0  0
   -6.2498  -13.9232    0.0000 C   0  0  0  0  0  0  0  0  0  0  0  0
   -6.5616  -15.3904    0.0000 C   0  0  0  0  0  0  0  0  0  0  0  0
   -7.9882  -15.8540    0.0000 C   0  0  0  0  0  0  0  0  0  0  0  0
   -9.1029  -14.8503    0.0000 C   0  0  0  0  0  0  0  0  0  0  0  0
  -10.5295  -15.3138    0.0000 C   0  0  0  0  0  0  0  0  0  0  0  0
  -10.8414  -16.7810    0.0000 C   0  0  0  0  0  0  0  0  0  0  0  0
  -12.2680  -17.2445    0.0000 O   0  0  0  0  0  0  0  0  0  0  0  0
   -9.7267  -17.7847    0.0000 C   0  0  0  0  0  0  0  0  0  0  0  0
   -8.3001  -17.3212    0.0000 C   0  0  0  0  0  0  0  0  0  0  0  0
   -7.3645  -12.9195    0.0000 C   0  0  0  0  0  0  0  0  0  0  0  0
   -8.7911  -13.3831    0.0000 N   0  0  0  0  0  0  0  0  0  0  0  0
   -7.0526  -11.4523    0.0000 O   0  0  0  0  0  0  0  0  0  0  0  0
   -2.0164   -0.2547    0.0000 C   0  0  0  0  0  0  0  0  0  0  0  0
   -0.6919   -0.9588    0.0000 C   0  0  0  0  0  0  0  0  0  0  0  0
   -1.7045    1.2125    0.0000 O   0  0  0  0  0  0  0  0  0  0  0  0
   -6.7871    2.2929    0.0000 C   0  0  0  0  0  0  0  0  0  0  0  0
   -5.3605    2.7564    0.0000 C   0  0  0  0  0  0  0  0  0  0  0  0
   -7.9018    3.2966    0.0000 C   0  0  0  0  0  0  0  0  0  0  0  0
  1  2  1  0
  2  3  1  0
  3  4  1  1
  3  5  1  0
  5  6  1  1
  6  7  1  0
  7  8  2  0
  7  9  1  0
  9 10  1  1
 10 11  1  0
 11 12  1  0
 12 13  2  0
 12 14  1  0
  9 15  1  0
 15 16  1  0
 16 17  2  0
 16 18  1  0
 18 19  1  1
 19 20  1  0
 20 21  2  0
 21 22  1  0
 22 23  2  0
 23 24  1  0
 23 25  1  0
 25 26  2  0
 18 27  1  0
 27 28  1  0
 28 29  2  0
 28 30  1  0
 30 31  1  0
 31 32  1  0
 32 33  2  0
 32 34  1  0
 34 35  1  1
 34 36  1  0
 36 37  1  0
 37 38  1  0
 37 39  2  0
  5 40  1  0
 40 41  2  0
 40 42  1  0
 42 43  1  0
 43 44  1  1
 44 45  1  0
 45 46  1  0
 46 47  2  0
 46 48  1  0
 43 49  1  0
 49 50  2  0
 49 51  1  0
 51 52  1  0
 52 53  1  6
 53 54  1  0
 54 55  2  0
 55 56  1  0
 56 57  1  0
 57 58  2  0
 58 59  1  0
 59 60  2  0
 60 61  1  0
 61 62  2  0
 52 63  1  0
 63 64  2  0
 63 65  1  0
 65 66  1  0
 66 67  1  1
 67 68  1  0
 68 69  2  0
 69 70  1  0
 70 71  2  0
 71 72  1  0
 71 73  1  0
 73 74  2  0
 66 75  1  0
 75 76  2  0
 75 77  1  0
 77 78  1  0
 78 79  1  1
 79 80  1  0
 78 81  1  0
 81 82  2  0
 81 83  1  0
 83 84  1  0
 84 85  1  1
 85 86  1  0
 86 87  2  0
 87 88  1  0
 88 89  1  0
 89 90  2  0
 90 91  1  0
 91 92  2  0
 92 93  1  0
 93 94  2  0
 84 95  1  0
 95 96  2  0
 95 97  1  0
 98 97  1  1
 98 99  1  0
 99100  2  0
 99101  1  0
102101  1  1
102103  1  0
103104  2  0
103105  1  0
105106  1  0
106107  1  6
107108  1  0
108109  2  0
109110  1  0
110111  2  0
111112  1  0
106113  1  0
113114  2  0
113115  1  0
115116  1  0
116117  1  0
117118  2  0
117119  1  0
119120  1  0
120121  1  1
121122  1  0
122123  1  0
123124  1  0
120125  1  0
125126  2  0
125127  1  0
127128  1  0
128129  1  1
129130  1  0
130131  2  0
131132  1  0
132133  2  0
133134  1  0
133135  1  0
135136  2  0
128137  1  0
137138  1  0
137139  2  0
102140  1  0
140141  1  6
140142  1  0
 98143  1  0
143144  1  0
143145  1  0
 26 20  1  0
 62 54  1  0
 74 68  1  0
 94 86  1  0
112108  1  0
136130  1  0
 62 57  1  0
 94 89  1  0
M  END
>  <Molecule ChEMBL ID>  (20) 
CHEMBL430206

>  <Smiles>  (20) 
CC[C@H](C)[C@H](NC(=O)[C@H](CCC(=O)O)NC(=O)[C@H](Cc1ccc(O)cc1)NC(=O)CNC(=O)[C@@H](N)CC(N)=O)C(=O)N[C@@H](CCC(=O)O)C(=O)N[C@@H](Cc1c[nH]c2ccccc12)C(=O)N[C@@H](Cc1ccc(O)cc1)C(=O)N[C@@H](CO)C(=O)N[C@@H](Cc1c[nH]c2ccccc12)C(=O)N[C@H](C(=O)N[C@H](C(=O)N[C@@H](Cc1cnc[nH]1)C(=O)NCC(=O)N[C@@H](CCSC)C(=O)N[C@@H](Cc1ccc(O)cc1)C(N)=O)[C@@H](C)O)C(C)C

>  <pChEMBL Value>  (20) 
4.55

>  <similarity>  (20) 
0.10948905109489052

$$$$

     RDKit          2D

 39 44  0  0  0  0  0  0  0  0999 V2000
    8.3999  -10.9953    0.0000 C   0  0  0  0  0  0  0  0  0  0  0  0
    7.2852  -11.9990    0.0000 C   0  0  0  0  0  0  0  0  0  0  0  0
    7.5970  -13.4662    0.0000 C   0  0  0  0  0  0  0  0  0  0  0  0
    6.4823  -14.4699    0.0000 C   0  0  0  0  0  0  0  0  0  0  0  0
    5.0557  -14.0064    0.0000 C   0  0  0  0  0  0  0  0  0  0  0  0
    4.7439  -12.5392    0.0000 C   0  0  0  0  0  0  0  0  0  0  0  0
    3.3173  -12.0757    0.0000 N   0  0  0  0  0  0  0  0  0  0  0  0
    2.2026  -13.0794    0.0000 C   0  0  0  0  0  0  0  0  0  0  0  0
    3.0054  -10.6084    0.0000 C   0  0  0  0  0  0  0  0  0  0  0  0
    1.5788  -10.1449    0.0000 O   0  0  0  0  0  0  0  0  0  0  0  0
    4.1201   -9.6047    0.0000 N   0  0  0  0  0  0  0  0  0  0  0  0
    5.5467  -10.0683    0.0000 C   0  0  0  0  0  0  0  0  0  0  0  0
    3.8083   -8.1375    0.0000 C   0  0  0  0  0  0  0  0  0  0  0  0
    2.3817   -7.6740    0.0000 C   0  0  0  0  0  0  0  0  0  0  0  0
    1.1682   -8.5557    0.0000 C   0  0  0  0  0  0  0  0  0  0  0  0
   -0.0454   -7.6740    0.0000 C   0  0  0  0  0  0  0  0  0  0  0  0
    0.4182   -6.2474    0.0000 C   0  0  0  0  0  0  0  0  0  0  0  0
   -0.4635   -5.0339    0.0000 C   0  0  0  0  0  0  0  0  0  0  0  0
   -1.9635   -5.0339    0.0000 N   0  0  0  0  0  0  0  0  0  0  0  0
   -2.4271   -3.6073    0.0000 N   0  0  0  0  0  0  0  0  0  0  0  0
   -1.2135   -2.7256    0.0000 C   0  0  0  0  0  0  0  0  0  0  0  0
   -0.0000   -3.6073    0.0000 C   0  0  0  0  0  0  0  0  0  0  0  0
    1.2135   -2.7256    0.0000 C   0  0  0  0  0  0  0  0  0  0  0  0
    0.7500   -1.2990    0.0000 C   0  0  0  0  0  0  0  0  0  0  0  0
    1.5000    0.0000    0.0000 C   0  0  0  0  0  0  0  0  0  0  0  0
    0.7500    1.2990    0.0000 C   0  0  0  0  0  0  0  0  0  0  0  0
    1.5000    2.5981    0.0000 C   0  0  0  0  0  0  0  0  0  0  0  0
    3.0000    2.5981    0.0000 N   0  0  0  0  0  0  0  0  0  0  0  0
    3.7500    1.2990    0.0000 C   0  0  0  0  0  0  0  0  0  0  0  0
    5.2500    1.2990    0.0000 C   0  0  0  0  0  0  0  0  0  0  0  0
    6.0000    2.5981    0.0000 N   0  0  0  0  0  0  0  0  0  0  0  0
    7.5000    2.5981    0.0000 C   0  0  0  0  0  0  0  0  0  0  0  0
    5.2500    3.8971    0.0000 C   0  0  0  0  0  0  0  0  0  0  0  0
    3.7500    3.8971    0.0000 C   0  0  0  0  0  0  0  0  0  0  0  0
   -0.7500    1.2990    0.0000 C   0  0  0  0  0  0  0  0  0  0  0  0
   -1.5000    0.0000    0.0000 C   0  0  0  0  0  0  0  0  0  0  0  0
   -0.7500   -1.2990    0.0000 C   0  0  0  0  0  0  0  0  0  0  0  0
    1.9182   -6.2474    0.0000 S   0  0  0  0  0  0  0  0  0  0  0  0
    5.8586  -11.5355    0.0000 C   0  0  0  0  0  0  0  0  0  0  0  0
  1  2  1  0
  2  3  2  0
  3  4  1  0
  4  5  2  0
  5  6  1  0
  6  7  1  0
  7  8  1  0
  7  9  1  0
  9 10  2  0
  9 11  1  0
 11 12  1  0
 11 13  1  0
 13 14  1  0
 14 15  2  0
 15 16  1  0
 16 17  2  0
 17 18  1  0
 18 19  1  0
 19 20  1  0
 20 21  2  0
 21 22  1  0
 22 23  1  0
 23 24  1  0
 24 25  2  0
 25 26  1  0
 26 27  1  0
 27 28  1  0
 28 29  1  0
 29 30  1  0
 30 31  1  0
 31 32  1  0
 31 33  1  0
 33 34  1  0
 26 35  2  0
 35 36  1  0
 36 37  2  0
 17 38  1  0
  6 39  2  0
 39  2  1  0
 38 14  1  0
 22 18  2  0
 37 24  1  0
 37 21  1  0
 34 28  1  0
M  END
>  <Molecule ChEMBL ID>  (21) 
CHEMBL212987

>  <Smiles>  (21) 
Cc1cccc(N(C)C(=O)N(C)Cc2ccc(-c3[nH]nc4c3Cc3cc(CN5CCN(C)CC5)ccc3-4)s2)c1

>  <pChEMBL Value>  (21) 
4.55

>  <similarity>  (21) 
0.10576923076923077

$$$$

     RDKit          2D

 90 91  0  0  0  0  0  0  0  0999 V2000
    8.8910   18.9563    0.0000 C   0  0  0  0  0  0  0  0  0  0  0  0
    8.4275   17.5297    0.0000 C   0  0  0  0  0  0  0  0  0  0  0  0
    6.9603   17.2178    0.0000 C   0  0  0  0  0  0  0  0  0  0  0  0
    6.4968   15.7912    0.0000 C   0  0  0  0  0  0  0  0  0  0  0  0
    5.0296   15.4794    0.0000 N   0  0  0  0  0  0  0  0  0  0  0  0
    4.5660   14.0528    0.0000 C   0  0  0  0  0  0  0  0  0  0  0  0
    5.5697   12.9381    0.0000 O   0  0  0  0  0  0  0  0  0  0  0  0
    3.0988   13.7409    0.0000 C   0  0  0  0  0  0  0  0  0  0  0  0
    2.0951   14.8556    0.0000 C   0  0  0  0  0  0  0  0  0  0  0  0
    2.5586   16.2822    0.0000 C   0  0  0  0  0  0  0  0  0  0  0  0
    1.5549   17.3969    0.0000 C   0  0  0  0  0  0  0  0  0  0  0  0
    2.0185   18.8235    0.0000 N   0  0  0  0  0  0  0  0  0  0  0  0
    0.0877   17.0851    0.0000 O   0  0  0  0  0  0  0  0  0  0  0  0
    2.6353   12.3143    0.0000 N   0  0  0  0  0  0  0  0  0  0  0  0
    3.6390   11.1996    0.0000 C   0  0  0  0  0  0  0  0  0  0  0  0
    5.1062   11.5115    0.0000 O   0  0  0  0  0  0  0  0  0  0  0  0
    3.1755    9.7730    0.0000 C   0  0  0  0  0  0  0  0  0  0  0  0
    4.1791    8.6583    0.0000 N   0  0  0  0  0  0  0  0  0  0  0  0
    3.7156    7.2317    0.0000 C   0  0  0  0  0  0  0  0  0  0  0  0
    2.2484    6.9199    0.0000 O   0  0  0  0  0  0  0  0  0  0  0  0
    4.7193    6.1170    0.0000 C   0  0  0  0  0  0  0  0  0  0  0  0
    6.1865    6.4289    0.0000 C   0  0  0  0  0  0  0  0  0  0  0  0
    6.6501    7.8555    0.0000 C   0  0  0  0  0  0  0  0  0  0  0  0
    8.1173    8.1673    0.0000 C   0  0  0  0  0  0  0  0  0  0  0  0
    8.5808    9.5939    0.0000 N   0  0  0  0  0  0  0  0  0  0  0  0
    9.1210    7.0526    0.0000 O   0  0  0  0  0  0  0  0  0  0  0  0
    4.2558    4.6904    0.0000 N   0  0  0  0  0  0  0  0  0  0  0  0
    2.7886    4.3786    0.0000 C   0  0  0  0  0  0  0  0  0  0  0  0
    1.7849    5.4933    0.0000 O   0  0  0  0  0  0  0  0  0  0  0  0
    2.3250    2.9520    0.0000 C   0  0  0  0  0  0  0  0  0  0  0  0
    0.8578    2.6401    0.0000 C   0  0  0  0  0  0  0  0  0  0  0  0
    0.3943    1.2135    0.0000 C   0  0  0  0  0  0  0  0  0  0  0  0
    1.2760    0.0000    0.0000 C   0  0  0  0  0  0  0  0  0  0  0  0
    0.3943   -1.2135    0.0000 N   0  0  0  0  0  0  0  0  0  0  0  0
   -1.0323   -0.7500    0.0000 C   0  0  0  0  0  0  0  0  0  0  0  0
   -1.0323    0.7500    0.0000 N   0  0  0  0  0  0  0  0  0  0  0  0
    3.3287    1.8373    0.0000 N   0  0  0  0  0  0  0  0  0  0  0  0
    4.7960    2.1491    0.0000 C   0  0  0  0  0  0  0  0  0  0  0  0
    5.2595    3.5757    0.0000 O   0  0  0  0  0  0  0  0  0  0  0  0
    5.7997    1.0344    0.0000 C   0  0  0  0  0  0  0  0  0  0  0  0
    7.2914    1.1912    0.0000 C   0  0  0  0  0  0  0  0  0  0  0  0
    7.9015   -0.1791    0.0000 C   0  0  0  0  0  0  0  0  0  0  0  0
    6.7868   -1.1828    0.0000 C   0  0  0  0  0  0  0  0  0  0  0  0
    5.4878   -0.4328    0.0000 N   0  0  0  0  0  0  0  0  0  0  0  0
    4.1175   -1.0429    0.0000 C   0  0  0  0  0  0  0  0  0  0  0  0
    2.9039   -0.1612    0.0000 O   0  0  0  0  0  0  0  0  0  0  0  0
    3.9607   -2.5347    0.0000 C   0  0  0  0  0  0  0  0  0  0  0  0
    2.5904   -3.1448    0.0000 C   0  0  0  0  0  0  0  0  0  0  0  0
    2.4336   -4.6366    0.0000 C   0  0  0  0  0  0  0  0  0  0  0  0
    1.0633   -5.2467    0.0000 C   0  0  0  0  0  0  0  0  0  0  0  0
    0.9065   -6.7385    0.0000 C   0  0  0  0  0  0  0  0  0  0  0  0
   -0.4639   -7.3486    0.0000 N   0  0  0  0  0  0  0  0  0  0  0  0
    5.1742   -3.4164    0.0000 N   0  0  0  0  0  0  0  0  0  0  0  0
    5.0174   -4.9082    0.0000 C   0  0  0  0  0  0  0  0  0  0  0  0
    3.6471   -5.5183    0.0000 O   0  0  0  0  0  0  0  0  0  0  0  0
    6.2309   -5.7898    0.0000 C   0  0  0  0  0  0  0  0  0  0  0  0
    7.6013   -5.1797    0.0000 N   0  0  0  0  0  0  0  0  0  0  0  0
    8.8148   -6.0614    0.0000 C   0  0  0  0  0  0  0  0  0  0  0  0
    8.6580   -7.5532    0.0000 O   0  0  0  0  0  0  0  0  0  0  0  0
   10.1851   -5.4513    0.0000 C   0  0  0  0  0  0  0  0  0  0  0  0
   11.3986   -6.3330    0.0000 C   0  0  0  0  0  0  0  0  0  0  0  0
   12.7689   -5.7229    0.0000 C   0  0  0  0  0  0  0  0  0  0  0  0
   13.9825   -6.6046    0.0000 C   0  0  0  0  0  0  0  0  0  0  0  0
   10.3419   -3.9595    0.0000 N   0  0  0  0  0  0  0  0  0  0  0  0
   11.7122   -3.3494    0.0000 C   0  0  0  0  0  0  0  0  0  0  0  0
   12.9257   -4.2311    0.0000 O   0  0  0  0  0  0  0  0  0  0  0  0
   11.8690   -1.8576    0.0000 C   0  0  0  0  0  0  0  0  0  0  0  0
   13.2393   -1.2475    0.0000 C   0  0  0  0  0  0  0  0  0  0  0  0
   13.3961    0.2443    0.0000 C   0  0  0  0  0  0  0  0  0  0  0  0
   14.7664    0.8544    0.0000 S   0  0  0  0  0  0  0  0  0  0  0  0
   14.9232    2.3461    0.0000 C   0  0  0  0  0  0  0  0  0  0  0  0
   10.6555   -0.9760    0.0000 N   0  0  0  0  0  0  0  0  0  0  0  0
   10.8123    0.5158    0.0000 C   0  0  0  0  0  0  0  0  0  0  0  0
    9.5987    1.3975    0.0000 C   0  0  0  0  0  0  0  0  0  0  0  0
   12.1826    1.1259    0.0000 O   0  0  0  0  0  0  0  0  0  0  0  0
    6.0741   -7.2816    0.0000 C   0  0  0  0  0  0  0  0  0  0  0  0
    7.2877   -8.1633    0.0000 C   0  0  0  0  0  0  0  0  0  0  0  0
    4.7038   -7.8917    0.0000 C   0  0  0  0  0  0  0  0  0  0  0  0
    4.5470   -9.3835    0.0000 C   0  0  0  0  0  0  0  0  0  0  0  0
    7.5005   14.6765    0.0000 C   0  0  0  0  0  0  0  0  0  0  0  0
    7.0369   13.2499    0.0000 O   0  0  0  0  0  0  0  0  0  0  0  0
    8.9677   14.9884    0.0000 N   0  0  0  0  0  0  0  0  0  0  0  0
    9.9714   13.8737    0.0000 C   0  0  0  0  0  0  0  0  0  0  0  0
    9.5079   12.4471    0.0000 C   0  0  0  0  0  0  0  0  0  0  0  0
   10.5116   11.3324    0.0000 N   0  0  0  0  0  0  0  0  0  0  0  0
    8.0406   12.1352    0.0000 O   0  0  0  0  0  0  0  0  0  0  0  0
   11.4386   14.1855    0.0000 C   0  0  0  0  0  0  0  0  0  0  0  0
   12.4423   13.0708    0.0000 C   0  0  0  0  0  0  0  0  0  0  0  0
   11.9021   15.6121    0.0000 C   0  0  0  0  0  0  0  0  0  0  0  0
   13.3694   15.9240    0.0000 C   0  0  0  0  0  0  0  0  0  0  0  0
  1  2  2  0
  2  3  1  0
  4  3  1  1
  4  5  1  0
  5  6  1  0
  6  7  2  0
  6  8  1  0
  8  9  1  1
  9 10  1  0
 10 11  1  0
 11 12  1  0
 11 13  2  0
  8 14  1  0
 14 15  1  0
 15 16  2  0
 15 17  1  0
 17 18  1  0
 18 19  1  0
 19 20  2  0
 19 21  1  0
 21 22  1  6
 22 23  1  0
 23 24  1  0
 24 25  1  0
 24 26  2  0
 21 27  1  0
 27 28  1  0
 28 29  2  0
 28 30  1  0
 30 31  1  1
 31 32  1  0
 32 33  2  0
 33 34  1  0
 34 35  2  0
 35 36  1  0
 30 37  1  0
 37 38  1  0
 38 39  2  0
 40 38  1  6
 40 41  1  0
 41 42  1  0
 42 43  1  0
 43 44  1  0
 44 45  1  0
 45 46  2  0
 45 47  1  0
 47 48  1  1
 48 49  1  0
 49 50  1  0
 50 51  1  0
 51 52  1  0
 47 53  1  0
 53 54  1  0
 54 55  2  0
 54 56  1  0
 56 57  1  1
 57 58  1  0
 58 59  2  0
 58 60  1  0
 60 61  1  1
 61 62  1  0
 62 63  2  0
 60 64  1  0
 64 65  1  0
 65 66  2  0
 65 67  1  0
 67 68  1  1
 68 69  1  0
 69 70  1  0
 70 71  1  0
 67 72  1  0
 72 73  1  0
 73 74  1  0
 73 75  2  0
 56 76  1  0
 76 77  1  1
 76 78  1  0
 78 79  1  0
  4 80  1  0
 80 81  2  0
 80 82  1  0
 83 82  1  1
 83 84  1  0
 84 85  1  0
 84 86  2  0
 83 87  1  0
 87 88  1  6
 87 89  1  0
 89 90  1  0
 36 32  1  0
 44 40  1  0
M  END
>  <Molecule ChEMBL ID>  (22) 
CHEMBL1684366

>  <Smiles>  (22) 
C=CC[C@H](NC(=O)[C@H](CCC(N)=O)NC(=O)CNC(=O)[C@H](CCC(N)=O)NC(=O)[C@H](Cc1cnc[nH]1)NC(=O)[C@@H]1CCCN1C(=O)[C@H](CCCCN)NC(=O)[C@@H](NC(=O)[C@H](CC=C)NC(=O)[C@H](CCSC)NC(C)=O)[C@@H](C)CC)C(=O)N[C@H](C(N)=O)[C@@H](C)CC

>  <pChEMBL Value>  (22) 
4.21

>  <similarity>  (22) 
0.06521739130434782

$$$$

     RDKit          2D

 29 32  0  0  0  0  0  0  0  0999 V2000
    6.1865    6.4289    0.0000 C   0  0  0  0  0  0  0  0  0  0  0  0
    4.7193    6.1170    0.0000 O   0  0  0  0  0  0  0  0  0  0  0  0
    4.2558    4.6904    0.0000 C   0  0  0  0  0  0  0  0  0  0  0  0
    5.2595    3.5757    0.0000 C   0  0  0  0  0  0  0  0  0  0  0  0
    4.7960    2.1491    0.0000 C   0  0  0  0  0  0  0  0  0  0  0  0
    3.3287    1.8373    0.0000 C   0  0  0  0  0  0  0  0  0  0  0  0
    2.8652    0.4107    0.0000 O   0  0  0  0  0  0  0  0  0  0  0  0
    3.8689   -0.7040    0.0000 C   0  0  0  0  0  0  0  0  0  0  0  0
    2.3250    2.9520    0.0000 C   0  0  0  0  0  0  0  0  0  0  0  0
    0.8578    2.6401    0.0000 C   0  0  0  0  0  0  0  0  0  0  0  0
    0.3943    1.2135    0.0000 C   0  0  0  0  0  0  0  0  0  0  0  0
    1.2760    0.0000    0.0000 C   0  0  0  0  0  0  0  0  0  0  0  0
    0.3943   -1.2135    0.0000 C   0  0  0  0  0  0  0  0  0  0  0  0
    0.7062   -2.6807    0.0000 C   0  0  0  0  0  0  0  0  0  0  0  0
    2.1328   -3.1443    0.0000 N   0  0  0  0  0  0  0  0  0  0  0  0
    2.4446   -4.6115    0.0000 C   0  0  0  0  0  0  0  0  0  0  0  0
    1.3299   -5.6152    0.0000 C   0  0  0  0  0  0  0  0  0  0  0  0
    1.6418   -7.0824    0.0000 C   0  0  0  0  0  0  0  0  0  0  0  0
    3.0684   -7.5459    0.0000 C   0  0  0  0  0  0  0  0  0  0  0  0
    4.1831   -6.5422    0.0000 C   0  0  0  0  0  0  0  0  0  0  0  0
    5.6097   -7.0058    0.0000 Br  0  0  0  0  0  0  0  0  0  0  0  0
    3.8712   -5.0750    0.0000 C   0  0  0  0  0  0  0  0  0  0  0  0
   -0.4086   -3.6844    0.0000 N   0  0  0  0  0  0  0  0  0  0  0  0
   -1.8351   -3.2209    0.0000 C   0  0  0  0  0  0  0  0  0  0  0  0
   -2.9499   -4.2246    0.0000 N   0  0  0  0  0  0  0  0  0  0  0  0
   -2.1470   -1.7537    0.0000 N   0  0  0  0  0  0  0  0  0  0  0  0
   -1.0323   -0.7500    0.0000 C   0  0  0  0  0  0  0  0  0  0  0  0
   -1.0323    0.7500    0.0000 N   0  0  0  0  0  0  0  0  0  0  0  0
    2.7886    4.3786    0.0000 C   0  0  0  0  0  0  0  0  0  0  0  0
  1  2  1  0
  2  3  1  0
  3  4  2  0
  4  5  1  0
  5  6  2  0
  6  7  1  0
  7  8  1  0
  6  9  1  0
  9 10  1  0
 10 11  1  0
 11 12  2  0
 12 13  1  0
 13 14  2  0
 14 15  1  0
 15 16  1  0
 16 17  2  0
 17 18  1  0
 18 19  2  0
 19 20  1  0
 20 21  1  0
 20 22  2  0
 14 23  1  0
 23 24  2  0
 24 25  1  0
 24 26  1  0
 26 27  2  0
 27 28  1  0
  9 29  2  0
 29  3  1  0
 28 11  1  0
 27 13  1  0
 22 16  1  0
M  END
>  <Molecule ChEMBL ID>  (23) 
CHEMBL1095465

>  <Smiles>  (23) 
COc1ccc(OC)c(Cc2cc3c(Nc4cccc(Br)c4)nc(N)nc3[nH]2)c1

>  <pChEMBL Value>  (23) 
4.34

>  <similarity>  (23) 
0.125

$$$$

     RDKit          2D

 86 87  0  0  0  0  0  0  0  0999 V2000
   -4.2373   12.1816    0.0000 C   0  0  0  0  0  0  0  0  0  0  0  0
   -3.2336   11.0669    0.0000 C   0  0  0  0  0  0  0  0  0  0  0  0
   -1.7664   11.3787    0.0000 C   0  0  0  0  0  0  0  0  0  0  0  0
   -0.7627   10.2640    0.0000 C   0  0  0  0  0  0  0  0  0  0  0  0
    0.7045   10.5759    0.0000 N   0  0  0  0  0  0  0  0  0  0  0  0
    1.7082    9.4612    0.0000 C   0  0  0  0  0  0  0  0  0  0  0  0
    1.2447    8.0346    0.0000 O   0  0  0  0  0  0  0  0  0  0  0  0
    3.1755    9.7730    0.0000 C   0  0  0  0  0  0  0  0  0  0  0  0
    3.6390   11.1996    0.0000 C   0  0  0  0  0  0  0  0  0  0  0  0
    2.6353   12.3143    0.0000 C   0  0  0  0  0  0  0  0  0  0  0  0
    3.0988   13.7409    0.0000 C   0  0  0  0  0  0  0  0  0  0  0  0
    2.0951   14.8556    0.0000 N   0  0  0  0  0  0  0  0  0  0  0  0
    4.5660   14.0528    0.0000 O   0  0  0  0  0  0  0  0  0  0  0  0
    4.1791    8.6583    0.0000 N   0  0  0  0  0  0  0  0  0  0  0  0
    3.7156    7.2317    0.0000 C   0  0  0  0  0  0  0  0  0  0  0  0
    2.2484    6.9199    0.0000 O   0  0  0  0  0  0  0  0  0  0  0  0
    4.7193    6.1170    0.0000 C   0  0  0  0  0  0  0  0  0  0  0  0
    6.1865    6.4289    0.0000 C   0  0  0  0  0  0  0  0  0  0  0  0
    6.6501    7.8555    0.0000 C   0  0  0  0  0  0  0  0  0  0  0  0
    8.1173    8.1673    0.0000 C   0  0  0  0  0  0  0  0  0  0  0  0
    8.5808    9.5939    0.0000 N   0  0  0  0  0  0  0  0  0  0  0  0
    9.1210    7.0526    0.0000 O   0  0  0  0  0  0  0  0  0  0  0  0
    4.2558    4.6904    0.0000 N   0  0  0  0  0  0  0  0  0  0  0  0
    2.7886    4.3786    0.0000 C   0  0  0  0  0  0  0  0  0  0  0  0
    1.7849    5.4933    0.0000 O   0  0  0  0  0  0  0  0  0  0  0  0
    2.3250    2.9520    0.0000 C   0  0  0  0  0  0  0  0  0  0  0  0
    0.8578    2.6401    0.0000 C   0  0  0  0  0  0  0  0  0  0  0  0
    0.3943    1.2135    0.0000 C   0  0  0  0  0  0  0  0  0  0  0  0
    1.2760    0.0000    0.0000 C   0  0  0  0  0  0  0  0  0  0  0  0
    0.3943   -1.2135    0.0000 N   0  0  0  0  0  0  0  0  0  0  0  0
   -1.0323   -0.7500    0.0000 C   0  0  0  0  0  0  0  0  0  0  0  0
   -1.0323    0.7500    0.0000 N   0  0  0  0  0  0  0  0  0  0  0  0
    3.3287    1.8373    0.0000 N   0  0  0  0  0  0  0  0  0  0  0  0
    4.7960    2.1491    0.0000 C   0  0  0  0  0  0  0  0  0  0  0  0
    5.2595    3.5757    0.0000 O   0  0  0  0  0  0  0  0  0  0  0  0
    5.7997    1.0344    0.0000 C   0  0  0  0  0  0  0  0  0  0  0  0
    7.2914    1.1912    0.0000 C   0  0  0  0  0  0  0  0  0  0  0  0
    7.9015   -0.1791    0.0000 C   0  0  0  0  0  0  0  0  0  0  0  0
    6.7868   -1.1828    0.0000 C   0  0  0  0  0  0  0  0  0  0  0  0
    5.4878   -0.4328    0.0000 N   0  0  0  0  0  0  0  0  0  0  0  0
    4.1175   -1.0429    0.0000 C   0  0  0  0  0  0  0  0  0  0  0  0
    2.9039   -0.1612    0.0000 O   0  0  0  0  0  0  0  0  0  0  0  0
    3.9607   -2.5347    0.0000 C   0  0  0  0  0  0  0  0  0  0  0  0
    2.5904   -3.1448    0.0000 C   0  0  0  0  0  0  0  0  0  0  0  0
    2.4336   -4.6366    0.0000 C   0  0  0  0  0  0  0  0  0  0  0  0
    1.0633   -5.2467    0.0000 C   0  0  0  0  0  0  0  0  0  0  0  0
    0.9065   -6.7385    0.0000 C   0  0  0  0  0  0  0  0  0  0  0  0
   -0.4639   -7.3486    0.0000 N   0  0  0  0  0  0  0  0  0  0  0  0
    5.1742   -3.4164    0.0000 N   0  0  0  0  0  0  0  0  0  0  0  0
    5.0174   -4.9082    0.0000 C   0  0  0  0  0  0  0  0  0  0  0  0
    3.6471   -5.5183    0.0000 O   0  0  0  0  0  0  0  0  0  0  0  0
    6.2309   -5.7898    0.0000 C   0  0  0  0  0  0  0  0  0  0  0  0
    7.6013   -5.1797    0.0000 N   0  0  0  0  0  0  0  0  0  0  0  0
    8.8148   -6.0614    0.0000 C   0  0  0  0  0  0  0  0  0  0  0  0
    8.6580   -7.5532    0.0000 O   0  0  0  0  0  0  0  0  0  0  0  0
   10.1851   -5.4513    0.0000 C   0  0  0  0  0  0  0  0  0  0  0  0
   11.3986   -6.3330    0.0000 C   0  0  0  0  0  0  0  0  0  0  0  0
   12.7689   -5.7229    0.0000 C   0  0  0  0  0  0  0  0  0  0  0  0
   13.9825   -6.6046    0.0000 C   0  0  0  0  0  0  0  0  0  0  0  0
   10.3419   -3.9595    0.0000 N   0  0  0  0  0  0  0  0  0  0  0  0
   11.7122   -3.3494    0.0000 C   0  0  0  0  0  0  0  0  0  0  0  0
   12.9257   -4.2311    0.0000 O   0  0  0  0  0  0  0  0  0  0  0  0
   11.8690   -1.8576    0.0000 C   0  0  0  0  0  0  0  0  0  0  0  0
   13.2393   -1.2475    0.0000 C   0  0  0  0  0  0  0  0  0  0  0  0
   13.3961    0.2443    0.0000 C   0  0  0  0  0  0  0  0  0  0  0  0
   14.7664    0.8544    0.0000 S   0  0  0  0  0  0  0  0  0  0  0  0
   14.9232    2.3461    0.0000 C   0  0  0  0  0  0  0  0  0  0  0  0
   10.6555   -0.9760    0.0000 N   0  0  0  0  0  0  0  0  0  0  0  0
   10.8123    0.5158    0.0000 C   0  0  0  0  0  0  0  0  0  0  0  0
    9.5987    1.3975    0.0000 C   0  0  0  0  0  0  0  0  0  0  0  0
   12.1826    1.1259    0.0000 O   0  0  0  0  0  0  0  0  0  0  0  0
    6.0741   -7.2816    0.0000 C   0  0  0  0  0  0  0  0  0  0  0  0
    7.2877   -8.1633    0.0000 C   0  0  0  0  0  0  0  0  0  0  0  0
    4.7038   -7.8917    0.0000 C   0  0  0  0  0  0  0  0  0  0  0  0
    4.5470   -9.3835    0.0000 C   0  0  0  0  0  0  0  0  0  0  0  0
   -1.2262    8.8374    0.0000 C   0  0  0  0  0  0  0  0  0  0  0  0
   -0.2225    7.7227    0.0000 O   0  0  0  0  0  0  0  0  0  0  0  0
   -2.6934    8.5256    0.0000 N   0  0  0  0  0  0  0  0  0  0  0  0
   -3.1570    7.0990    0.0000 C   0  0  0  0  0  0  0  0  0  0  0  0
   -2.1533    5.9843    0.0000 C   0  0  0  0  0  0  0  0  0  0  0  0
   -2.6168    4.5577    0.0000 N   0  0  0  0  0  0  0  0  0  0  0  0
   -0.6860    6.2961    0.0000 O   0  0  0  0  0  0  0  0  0  0  0  0
   -4.6242    6.7871    0.0000 C   0  0  0  0  0  0  0  0  0  0  0  0
   -5.0877    5.3605    0.0000 C   0  0  0  0  0  0  0  0  0  0  0  0
   -5.6279    7.9018    0.0000 C   0  0  0  0  0  0  0  0  0  0  0  0
   -7.0951    7.5900    0.0000 C   0  0  0  0  0  0  0  0  0  0  0  0
  1  2  2  0
  2  3  1  0
  4  3  1  6
  4  5  1  0
  5  6  1  0
  6  7  2  0
  6  8  1  0
  8  9  1  6
  9 10  1  0
 10 11  1  0
 11 12  1  0
 11 13  2  0
  8 14  1  0
 14 15  1  0
 15 16  2  0
 15 17  1  0
 17 18  1  6
 18 19  1  0
 19 20  1  0
 20 21  1  0
 20 22  2  0
 17 23  1  0
 23 24  1  0
 24 25  2  0
 24 26  1  0
 26 27  1  1
 27 28  1  0
 28 29  2  0
 29 30  1  0
 30 31  2  0
 31 32  1  0
 26 33  1  0
 33 34  1  0
 34 35  2  0
 36 34  1  6
 36 37  1  0
 37 38  1  0
 38 39  1  0
 39 40  1  0
 40 41  1  0
 41 42  2  0
 41 43  1  0
 43 44  1  1
 44 45  1  0
 45 46  1  0
 46 47  1  0
 47 48  1  0
 43 49  1  0
 49 50  1  0
 50 51  2  0
 50 52  1  0
 52 53  1  1
 53 54  1  0
 54 55  2  0
 54 56  1  0
 56 57  1  1
 57 58  1  0
 58 59  2  0
 56 60  1  0
 60 61  1  0
 61 62  2  0
 61 63  1  0
 63 64  1  1
 64 65  1  0
 65 66  1  0
 66 67  1  0
 63 68  1  0
 68 69  1  0
 69 70  1  0
 69 71  2  0
 52 72  1  0
 72 73  1  1
 72 74  1  0
 74 75  1  0
  4 76  1  0
 76 77  2  0
 76 78  1  0
 79 78  1  6
 79 80  1  0
 80 81  1  0
 80 82  2  0
 79 83  1  0
 83 84  1  1
 83 85  1  0
 85 86  1  0
 32 28  1  0
 40 36  1  0
M  END
>  <Molecule ChEMBL ID>  (24) 
CHEMBL1684373

>  <Smiles>  (24) 
C=CC[C@H](NC(=O)[C@H](CCC(N)=O)NC(=O)[C@H](CCC(N)=O)NC(=O)[C@H](Cc1cnc[nH]1)NC(=O)[C@@H]1CCCN1C(=O)[C@H](CCCCN)NC(=O)[C@@H](NC(=O)[C@H](CC=C)NC(=O)[C@H](CCSC)NC(C)=O)[C@@H](C)CC)C(=O)N[C@H](C(N)=O)[C@@H](C)CC

>  <pChEMBL Value>  (24) 
4.44

>  <similarity>  (24) 
0.061068702290076333

$$$$

     RDKit          2D

 90 91  0  0  0  0  0  0  0  0999 V2000
    8.8910   18.9563    0.0000 C   0  0  0  0  0  0  0  0  0  0  0  0
    8.4275   17.5297    0.0000 C   0  0  0  0  0  0  0  0  0  0  0  0
    6.9603   17.2178    0.0000 C   0  0  0  0  0  0  0  0  0  0  0  0
    6.4968   15.7912    0.0000 C   0  0  0  0  0  0  0  0  0  0  0  0
    5.0296   15.4794    0.0000 N   0  0  0  0  0  0  0  0  0  0  0  0
    4.5660   14.0528    0.0000 C   0  0  0  0  0  0  0  0  0  0  0  0
    5.5697   12.9381    0.0000 O   0  0  0  0  0  0  0  0  0  0  0  0
    3.0988   13.7409    0.0000 C   0  0  0  0  0  0  0  0  0  0  0  0
    2.0951   14.8556    0.0000 C   0  0  0  0  0  0  0  0  0  0  0  0
    2.5586   16.2822    0.0000 C   0  0  0  0  0  0  0  0  0  0  0  0
    1.5549   17.3969    0.0000 C   0  0  0  0  0  0  0  0  0  0  0  0
    2.0185   18.8235    0.0000 N   0  0  0  0  0  0  0  0  0  0  0  0
    0.0877   17.0851    0.0000 O   0  0  0  0  0  0  0  0  0  0  0  0
    2.6353   12.3143    0.0000 N   0  0  0  0  0  0  0  0  0  0  0  0
    3.6390   11.1996    0.0000 C   0  0  0  0  0  0  0  0  0  0  0  0
    5.1062   11.5115    0.0000 O   0  0  0  0  0  0  0  0  0  0  0  0
    3.1755    9.7730    0.0000 C   0  0  0  0  0  0  0  0  0  0  0  0
    4.1791    8.6583    0.0000 N   0  0  0  0  0  0  0  0  0  0  0  0
    3.7156    7.2317    0.0000 C   0  0  0  0  0  0  0  0  0  0  0  0
    2.2484    6.9199    0.0000 O   0  0  0  0  0  0  0  0  0  0  0  0
    4.7193    6.1170    0.0000 C   0  0  0  0  0  0  0  0  0  0  0  0
    6.1865    6.4289    0.0000 C   0  0  0  0  0  0  0  0  0  0  0  0
    6.6501    7.8555    0.0000 C   0  0  0  0  0  0  0  0  0  0  0  0
    8.1173    8.1673    0.0000 C   0  0  0  0  0  0  0  0  0  0  0  0
    8.5808    9.5939    0.0000 N   0  0  0  0  0  0  0  0  0  0  0  0
    9.1210    7.0526    0.0000 O   0  0  0  0  0  0  0  0  0  0  0  0
    4.2558    4.6904    0.0000 N   0  0  0  0  0  0  0  0  0  0  0  0
    2.7886    4.3786    0.0000 C   0  0  0  0  0  0  0  0  0  0  0  0
    1.7849    5.4933    0.0000 O   0  0  0  0  0  0  0  0  0  0  0  0
    2.3250    2.9520    0.0000 C   0  0  0  0  0  0  0  0  0  0  0  0
    0.8578    2.6401    0.0000 C   0  0  0  0  0  0  0  0  0  0  0  0
    0.3943    1.2135    0.0000 C   0  0  0  0  0  0  0  0  0  0  0  0
    1.2760    0.0000    0.0000 C   0  0  0  0  0  0  0  0  0  0  0  0
    0.3943   -1.2135    0.0000 N   0  0  0  0  0  0  0  0  0  0  0  0
   -1.0323   -0.7500    0.0000 C   0  0  0  0  0  0  0  0  0  0  0  0
   -1.0323    0.7500    0.0000 N   0  0  0  0  0  0  0  0  0  0  0  0
    3.3287    1.8373    0.0000 N   0  0  0  0  0  0  0  0  0  0  0  0
    4.7960    2.1491    0.0000 C   0  0  0  0  0  0  0  0  0  0  0  0
    5.2595    3.5757    0.0000 O   0  0  0  0  0  0  0  0  0  0  0  0
    5.7997    1.0344    0.0000 C   0  0  0  0  0  0  0  0  0  0  0  0
    7.2914    1.1912    0.0000 C   0  0  0  0  0  0  0  0  0  0  0  0
    7.9015   -0.1791    0.0000 C   0  0  0  0  0  0  0  0  0  0  0  0
    6.7868   -1.1828    0.0000 C   0  0  0  0  0  0  0  0  0  0  0  0
    5.4878   -0.4328    0.0000 N   0  0  0  0  0  0  0  0  0  0  0  0
    4.1175   -1.0429    0.0000 C   0  0  0  0  0  0  0  0  0  0  0  0
    2.9039   -0.1612    0.0000 O   0  0  0  0  0  0  0  0  0  0  0  0
    3.9607   -2.5347    0.0000 C   0  0  0  0  0  0  0  0  0  0  0  0
    2.5904   -3.1448    0.0000 C   0  0  0  0  0  0  0  0  0  0  0  0
    2.4336   -4.6366    0.0000 C   0  0  0  0  0  0  0  0  0  0  0  0
    1.0633   -5.2467    0.0000 C   0  0  0  0  0  0  0  0  0  0  0  0
    0.9065   -6.7385    0.0000 C   0  0  0  0  0  0  0  0  0  0  0  0
   -0.4639   -7.3486    0.0000 N   0  0  0  0  0  0  0  0  0  0  0  0
    5.1742   -3.4164    0.0000 N   0  0  0  0  0  0  0  0  0  0  0  0
    5.0174   -4.9082    0.0000 C   0  0  0  0  0  0  0  0  0  0  0  0
    3.6471   -5.5183    0.0000 O   0  0  0  0  0  0  0  0  0  0  0  0
    6.2309   -5.7898    0.0000 C   0  0  0  0  0  0  0  0  0  0  0  0
    7.6013   -5.1797    0.0000 N   0  0  0  0  0  0  0  0  0  0  0  0
    8.8148   -6.0614    0.0000 C   0  0  0  0  0  0  0  0  0  0  0  0
    8.6580   -7.5532    0.0000 O   0  0  0  0  0  0  0  0  0  0  0  0
   10.1851   -5.4513    0.0000 C   0  0  0  0  0  0  0  0  0  0  0  0
   11.3986   -6.3330    0.0000 C   0  0  0  0  0  0  0  0  0  0  0  0
   12.7689   -5.7229    0.0000 C   0  0  0  0  0  0  0  0  0  0  0  0
   13.9825   -6.6046    0.0000 C   0  0  0  0  0  0  0  0  0  0  0  0
   10.3419   -3.9595    0.0000 N   0  0  0  0  0  0  0  0  0  0  0  0
   11.7122   -3.3494    0.0000 C   0  0  0  0  0  0  0  0  0  0  0  0
   12.9257   -4.2311    0.0000 O   0  0  0  0  0  0  0  0  0  0  0  0
   11.8690   -1.8576    0.0000 C   0  0  0  0  0  0  0  0  0  0  0  0
   13.2393   -1.2475    0.0000 C   0  0  0  0  0  0  0  0  0  0  0  0
   13.3961    0.2443    0.0000 C   0  0  0  0  0  0  0  0  0  0  0  0
   14.7664    0.8544    0.0000 S   0  0  0  0  0  0  0  0  0  0  0  0
   14.9232    2.3461    0.0000 C   0  0  0  0  0  0  0  0  0  0  0  0
   10.6555   -0.9760    0.0000 N   0  0  0  0  0  0  0  0  0  0  0  0
   10.8123    0.5158    0.0000 C   0  0  0  0  0  0  0  0  0  0  0  0
    9.5987    1.3975    0.0000 C   0  0  0  0  0  0  0  0  0  0  0  0
   12.1826    1.1259    0.0000 O   0  0  0  0  0  0  0  0  0  0  0  0
    6.0741   -7.2816    0.0000 C   0  0  0  0  0  0  0  0  0  0  0  0
    7.2877   -8.1633    0.0000 C   0  0  0  0  0  0  0  0  0  0  0  0
    4.7038   -7.8917    0.0000 C   0  0  0  0  0  0  0  0  0  0  0  0
    4.5470   -9.3835    0.0000 C   0  0  0  0  0  0  0  0  0  0  0  0
    7.5005   14.6765    0.0000 C   0  0  0  0  0  0  0  0  0  0  0  0
    7.0369   13.2499    0.0000 O   0  0  0  0  0  0  0  0  0  0  0  0
    8.9677   14.9884    0.0000 N   0  0  0  0  0  0  0  0  0  0  0  0
    9.9714   13.8737    0.0000 C   0  0  0  0  0  0  0  0  0  0  0  0
    9.5079   12.4471    0.0000 C   0  0  0  0  0  0  0  0  0  0  0  0
   10.5116   11.3324    0.0000 N   0  0  0  0  0  0  0  0  0  0  0  0
    8.0406   12.1352    0.0000 O   0  0  0  0  0  0  0  0  0  0  0  0
   11.4386   14.1855    0.0000 C   0  0  0  0  0  0  0  0  0  0  0  0
   12.4423   13.0708    0.0000 C   0  0  0  0  0  0  0  0  0  0  0  0
   11.9021   15.6121    0.0000 C   0  0  0  0  0  0  0  0  0  0  0  0
   13.3694   15.9240    0.0000 C   0  0  0  0  0  0  0  0  0  0  0  0
  1  2  2  0
  2  3  1  0
  4  3  1  1
  4  5  1  0
  5  6  1  0
  6  7  2  0
  6  8  1  0
  8  9  1  1
  9 10  1  0
 10 11  1  0
 11 12  1  0
 11 13  2  0
  8 14  1  0
 14 15  1  0
 15 16  2  0
 15 17  1  0
 17 18  1  0
 18 19  1  0
 19 20  2  0
 19 21  1  0
 21 22  1  6
 22 23  1  0
 23 24  1  0
 24 25  1  0
 24 26  2  0
 21 27  1  0
 27 28  1  0
 28 29  2  0
 28 30  1  0
 30 31  1  1
 31 32  1  0
 32 33  2  0
 33 34  1  0
 34 35  2  0
 35 36  1  0
 30 37  1  0
 37 38  1  0
 38 39  2  0
 40 38  1  6
 40 41  1  0
 41 42  1  0
 42 43  1  0
 43 44  1  0
 44 45  1  0
 45 46  2  0
 45 47  1  0
 47 48  1  1
 48 49  1  0
 49 50  1  0
 50 51  1  0
 51 52  1  0
 47 53  1  0
 53 54  1  0
 54 55  2  0
 54 56  1  0
 56 57  1  1
 57 58  1  0
 58 59  2  0
 58 60  1  0
 60 61  1  1
 61 62  1  0
 62 63  2  0
 60 64  1  0
 64 65  1  0
 65 66  2  0
 65 67  1  0
 67 68  1  1
 68 69  1  0
 69 70  1  0
 70 71  1  0
 67 72  1  0
 72 73  1  0
 73 74  1  0
 73 75  2  0
 56 76  1  0
 76 77  1  1
 76 78  1  0
 78 79  1  0
  4 80  1  0
 80 81  2  0
 80 82  1  0
 83 82  1  1
 83 84  1  0
 84 85  1  0
 84 86  2  0
 83 87  1  0
 87 88  1  6
 87 89  1  0
 89 90  1  0
 36 32  1  0
 44 40  1  0
M  END
>  <Molecule ChEMBL ID>  (25) 
CHEMBL1684366

>  <Smiles>  (25) 
C=CC[C@H](NC(=O)[C@H](CCC(N)=O)NC(=O)CNC(=O)[C@H](CCC(N)=O)NC(=O)[C@H](Cc1cnc[nH]1)NC(=O)[C@@H]1CCCN1C(=O)[C@H](CCCCN)NC(=O)[C@@H](NC(=O)[C@H](CC=C)NC(=O)[C@H](CCSC)NC(C)=O)[C@@H](C)CC)C(=O)N[C@H](C(N)=O)[C@@H](C)CC

>  <pChEMBL Value>  (25) 
4.21

>  <similarity>  (25) 
0.06521739130434782

$$$$

     RDKit          2D

 27 30  0  0  0  0  0  0  0  0999 V2000
    1.7849    5.4933    0.0000 C   0  0  0  0  0  0  0  0  0  0  0  0
    2.7886    4.3786    0.0000 C   0  0  0  0  0  0  0  0  0  0  0  0
    4.2558    4.6904    0.0000 C   0  0  0  0  0  0  0  0  0  0  0  0
    5.2595    3.5757    0.0000 C   0  0  0  0  0  0  0  0  0  0  0  0
    4.7960    2.1491    0.0000 C   0  0  0  0  0  0  0  0  0  0  0  0
    3.3287    1.8373    0.0000 C   0  0  0  0  0  0  0  0  0  0  0  0
    2.3250    2.9520    0.0000 C   0  0  0  0  0  0  0  0  0  0  0  0
    0.8578    2.6401    0.0000 C   0  0  0  0  0  0  0  0  0  0  0  0
    0.3943    1.2135    0.0000 C   0  0  0  0  0  0  0  0  0  0  0  0
    1.2760    0.0000    0.0000 C   0  0  0  0  0  0  0  0  0  0  0  0
    0.3943   -1.2135    0.0000 C   0  0  0  0  0  0  0  0  0  0  0  0
    0.7062   -2.6807    0.0000 C   0  0  0  0  0  0  0  0  0  0  0  0
    2.1328   -3.1443    0.0000 N   0  0  0  0  0  0  0  0  0  0  0  0
    2.4446   -4.6115    0.0000 C   0  0  0  0  0  0  0  0  0  0  0  0
    1.3299   -5.6152    0.0000 C   0  0  0  0  0  0  0  0  0  0  0  0
    1.6418   -7.0824    0.0000 C   0  0  0  0  0  0  0  0  0  0  0  0
    3.0684   -7.5459    0.0000 C   0  0  0  0  0  0  0  0  0  0  0  0
    3.3802   -9.0132    0.0000 Cl  0  0  0  0  0  0  0  0  0  0  0  0
    4.1831   -6.5422    0.0000 C   0  0  0  0  0  0  0  0  0  0  0  0
    3.8712   -5.0750    0.0000 C   0  0  0  0  0  0  0  0  0  0  0  0
    4.9859   -4.0713    0.0000 F   0  0  0  0  0  0  0  0  0  0  0  0
   -0.4086   -3.6844    0.0000 N   0  0  0  0  0  0  0  0  0  0  0  0
   -1.8351   -3.2209    0.0000 C   0  0  0  0  0  0  0  0  0  0  0  0
   -2.9499   -4.2246    0.0000 N   0  0  0  0  0  0  0  0  0  0  0  0
   -2.1470   -1.7537    0.0000 N   0  0  0  0  0  0  0  0  0  0  0  0
   -1.0323   -0.7500    0.0000 C   0  0  0  0  0  0  0  0  0  0  0  0
   -1.0323    0.7500    0.0000 N   0  0  0  0  0  0  0  0  0  0  0  0
  1  2  1  0
  2  3  2  0
  3  4  1  0
  4  5  2  0
  5  6  1  0
  6  7  2  0
  7  8  1  0
  8  9  1  0
  9 10  2  0
 10 11  1  0
 11 12  2  0
 12 13  1  0
 13 14  1  0
 14 15  2  0
 15 16  1  0
 16 17  2  0
 17 18  1  0
 17 19  1  0
 19 20  2  0
 20 21  1  0
 12 22  1  0
 22 23  2  0
 23 24  1  0
 23 25  1  0
 25 26  2  0
 26 27  1  0
  7  2  1  0
 27  9  1  0
 26 11  1  0
 20 14  1  0
M  END
>  <Molecule ChEMBL ID>  (26) 
CHEMBL1929552

>  <Smiles>  (26) 
Cc1ccccc1Cc1cc2c(Nc3ccc(Cl)cc3F)nc(N)nc2[nH]1

>  <pChEMBL Value>  (26) 
4.72

>  <similarity>  (26) 
0.17073170731707318

$$$$

     RDKit          2D

 41 47  0  0  0  0  0  0  0  0999 V2000
    3.7500   -6.4952    0.0000 O   0  0  0  0  0  0  0  0  0  0  0  0
    3.0000   -5.1962    0.0000 C   0  0  0  0  0  0  0  0  0  0  0  0
    1.5000   -5.1962    0.0000 C   0  0  0  0  0  0  0  0  0  0  0  0
    0.7500   -3.8971    0.0000 C   0  0  0  0  0  0  0  0  0  0  0  0
    1.5000   -2.5981    0.0000 C   0  0  0  0  0  0  0  0  0  0  0  0
    0.7500   -1.2990    0.0000 C   0  0  0  0  0  0  0  0  0  0  0  0
    1.5000    0.0000    0.0000 O   0  0  0  0  0  0  0  0  0  0  0  0
    0.7500    1.2990    0.0000 C   0  0  0  0  0  0  0  0  0  0  0  0
   -0.7500    1.2990    0.0000 C   0  0  0  0  0  0  0  0  0  0  0  0
   -1.5000    2.5981    0.0000 C   0  0  0  0  0  0  0  0  0  0  0  0
   -3.0000    2.5981    0.0000 O   0  0  0  0  0  0  0  0  0  0  0  0
   -0.7500    3.8971    0.0000 C   0  0  0  0  0  0  0  0  0  0  0  0
    0.7500    3.8971    0.0000 C   0  0  0  0  0  0  0  0  0  0  0  0
    1.5000    2.5981    0.0000 C   0  0  0  0  0  0  0  0  0  0  0  0
    3.0000    2.5981    0.0000 C   0  0  0  0  0  0  0  0  0  0  0  0
    4.5000    2.5981    0.0000 C   0  0  0  0  0  0  0  0  0  0  0  0
    5.2500    1.2990    0.0000 C   0  0  0  0  0  0  0  0  0  0  0  0
    4.5000   -0.0000    0.0000 O   0  0  0  0  0  0  0  0  0  0  0  0
    6.7500    1.2990    0.0000 C   0  0  0  0  0  0  0  0  0  0  0  0
    7.5000    2.5981    0.0000 C   0  0  0  0  0  0  0  0  0  0  0  0
    9.0000    2.5981    0.0000 O   0  0  0  0  0  0  0  0  0  0  0  0
    6.7500    3.8971    0.0000 C   0  0  0  0  0  0  0  0  0  0  0  0
    5.2500    3.8971    0.0000 C   0  0  0  0  0  0  0  0  0  0  0  0
    4.5000    5.1962    0.0000 O   0  0  0  0  0  0  0  0  0  0  0  0
    3.0000    5.1962    0.0000 C   0  0  0  0  0  0  0  0  0  0  0  0
    3.7500    6.4952    0.0000 C   0  0  0  0  0  0  0  0  0  0  0  0
    5.2500    6.4952    0.0000 C   0  0  0  0  0  0  0  0  0  0  0  0
    6.0000    7.7942    0.0000 C   0  0  0  0  0  0  0  0  0  0  0  0
    5.2500    9.0933    0.0000 C   0  0  0  0  0  0  0  0  0  0  0  0
    6.0000   10.3923    0.0000 O   0  0  0  0  0  0  0  0  0  0  0  0
    3.7500    9.0933    0.0000 C   0  0  0  0  0  0  0  0  0  0  0  0
    3.0000   10.3923    0.0000 O   0  0  0  0  0  0  0  0  0  0  0  0
    3.0000    7.7942    0.0000 C   0  0  0  0  0  0  0  0  0  0  0  0
    1.5000    5.1962    0.0000 O   0  0  0  0  0  0  0  0  0  0  0  0
    3.7500    3.8971    0.0000 C   0  0  0  0  0  0  0  0  0  0  0  0
    4.5235    3.7042    0.0000 O   0  0  0  0  0  0  0  0  0  0  0  0
   -1.5000    0.0000    0.0000 C   0  0  0  0  0  0  0  0  0  0  0  0
   -0.7500   -1.2990    0.0000 C   0  0  0  0  0  0  0  0  0  0  0  0
   -1.5000   -2.5981    0.0000 O   0  0  0  0  0  0  0  0  0  0  0  0
    3.0000   -2.5981    0.0000 C   0  0  0  0  0  0  0  0  0  0  0  0
    3.7500   -3.8971    0.0000 C   0  0  0  0  0  0  0  0  0  0  0  0
  1  2  1  0
  2  3  2  0
  3  4  1  0
  4  5  2  0
  6  5  1  6
  6  7  1  0
  7  8  1  0
  8  9  2  0
  9 10  1  0
 10 11  1  0
 10 12  2  0
 12 13  1  0
 13 14  2  0
 15 14  1  6
 15 16  1  0
 16 17  2  0
 17 18  1  0
 17 19  1  0
 19 20  2  0
 20 21  1  0
 20 22  1  0
 22 23  2  0
 23 24  1  0
 24 25  1  0
 25 26  1  1
 26 27  2  0
 27 28  1  0
 28 29  2  0
 29 30  1  0
 29 31  1  0
 31 32  1  0
 31 33  2  0
 25 34  1  0
 25 35  1  0
 35 36  1  6
  9 37  1  0
 37 38  1  0
 38 39  1  1
  5 40  1  0
 40 41  2  0
 41  2  1  0
 38  6  1  0
 14  8  1  0
 35 15  1  0
 34 13  1  0
 23 16  1  0
 33 26  1  0
M  END
>  <Molecule ChEMBL ID>  (27) 
CHEMBL499587

>  <Smiles>  (27) 
Oc1ccc([C@H]2Oc3c(c(O)cc4c3[C@H]3c5c(O)cc(O)cc5O[C@@](c5ccc(O)c(O)c5)(O4)[C@@H]3O)C[C@@H]2O)cc1

>  <pChEMBL Value>  (27) 
4.19

>  <similarity>  (27) 
0.07608695652173914

$$$$

     RDKit          2D

 89 91  0  0  0  0  0  0  0  0999 V2000
    1.6082   19.4287    0.0000 C   0  0  0  0  0  0  0  0  0  0  0  0
    0.3883   18.5558    0.0000 C   0  0  0  0  0  0  0  0  0  0  0  0
   -0.9776   19.1758    0.0000 C   0  0  0  0  0  0  0  0  0  0  0  0
   -1.1236   20.6686    0.0000 C   0  0  0  0  0  0  0  0  0  0  0  0
   -2.1974   18.3029    0.0000 C   0  0  0  0  0  0  0  0  0  0  0  0
   -2.0514   16.8100    0.0000 N   0  0  0  0  0  0  0  0  0  0  0  0
   -3.2713   15.9371    0.0000 C   0  0  0  0  0  0  0  0  0  0  0  0
   -4.6372   16.5571    0.0000 O   0  0  0  0  0  0  0  0  0  0  0  0
   -3.1253   14.4442    0.0000 C   0  0  0  0  0  0  0  0  0  0  0  0
   -1.6254   14.4280    0.0000 C   0  0  0  0  0  0  0  0  0  0  0  0
   -0.1640   14.0897    0.0000 C   0  0  0  0  0  0  0  0  0  0  0  0
    0.3303   15.5059    0.0000 O   0  0  0  0  0  0  0  0  0  0  0  0
    1.1905   13.4451    0.0000 N   0  0  0  0  0  0  0  0  0  0  0  0
    2.3747   12.5245    0.0000 C   0  0  0  0  0  0  0  0  0  0  0  0
    3.3333   11.3708    0.0000 C   0  0  0  0  0  0  0  0  0  0  0  0
    4.5839   12.1991    0.0000 N   0  0  0  0  0  0  0  0  0  0  0  0
    4.4919   13.6963    0.0000 C   0  0  0  0  0  0  0  0  0  0  0  0
    3.1493   14.3651    0.0000 O   0  0  0  0  0  0  0  0  0  0  0  0
    5.7425   14.5245    0.0000 C   0  0  0  0  0  0  0  0  0  0  0  0
    5.6504   16.0217    0.0000 C   0  0  0  0  0  0  0  0  0  0  0  0
    6.9010   16.8500    0.0000 C   0  0  0  0  0  0  0  0  0  0  0  0
    6.8090   18.3472    0.0000 S   0  0  0  0  0  0  0  0  0  0  0  0
    8.0596   19.1754    0.0000 C   0  0  0  0  0  0  0  0  0  0  0  0
    7.0851   13.8556    0.0000 N   0  0  0  0  0  0  0  0  0  0  0  0
    8.3356   14.6839    0.0000 C   0  0  0  0  0  0  0  0  0  0  0  0
    9.6783   14.0150    0.0000 C   0  0  0  0  0  0  0  0  0  0  0  0
    8.2436   16.1811    0.0000 O   0  0  0  0  0  0  0  0  0  0  0  0
    4.0215   10.0380    0.0000 C   0  0  0  0  0  0  0  0  0  0  0  0
    5.4209   10.5781    0.0000 O   0  0  0  0  0  0  0  0  0  0  0  0
    4.4072    8.5884    0.0000 N   0  0  0  0  0  0  0  0  0  0  0  0
    4.4721    7.0898    0.0000 C   0  0  0  0  0  0  0  0  0  0  0  0
    5.9690    6.9924    0.0000 C   0  0  0  0  0  0  0  0  0  0  0  0
    6.6330    5.6474    0.0000 C   0  0  0  0  0  0  0  0  0  0  0  0
    6.8018    8.2400    0.0000 C   0  0  0  0  0  0  0  0  0  0  0  0
    8.2986    8.1425    0.0000 C   0  0  0  0  0  0  0  0  0  0  0  0
    4.2134    5.6123    0.0000 C   0  0  0  0  0  0  0  0  0  0  0  0
    5.6543    5.1954    0.0000 O   0  0  0  0  0  0  0  0  0  0  0  0
    3.6432    4.2249    0.0000 N   0  0  0  0  0  0  0  0  0  0  0  0
    2.7880    2.9926    0.0000 C   0  0  0  0  0  0  0  0  0  0  0  0
    3.9206    2.0092    0.0000 C   0  0  0  0  0  0  0  0  0  0  0  0
    5.3386    2.4984    0.0000 C   0  0  0  0  0  0  0  0  0  0  0  0
    6.4713    1.5150    0.0000 C   0  0  0  0  0  0  0  0  0  0  0  0
    7.8893    2.0042    0.0000 C   0  0  0  0  0  0  0  0  0  0  0  0
    9.0219    1.0208    0.0000 N   0  0  0  0  0  0  0  0  0  0  0  0
    1.6879    1.9729    0.0000 C   0  0  0  0  0  0  0  0  0  0  0  0
    2.5827    0.7690    0.0000 O   0  0  0  0  0  0  0  0  0  0  0  0
    0.3943    1.2135    0.0000 N   0  0  0  0  0  0  0  0  0  0  0  0
    1.2760    0.0000    0.0000 C   0  0  0  0  0  0  0  0  0  0  0  0
    0.3943   -1.2135    0.0000 C   0  0  0  0  0  0  0  0  0  0  0  0
   -1.0323   -0.7500    0.0000 C   0  0  0  0  0  0  0  0  0  0  0  0
   -1.0323    0.7500    0.0000 C   0  0  0  0  0  0  0  0  0  0  0  0
   -2.5252    0.6040    0.0000 C   0  0  0  0  0  0  0  0  0  0  0  0
   -2.5414   -0.8959    0.0000 O   0  0  0  0  0  0  0  0  0  0  0  0
   -4.0145    0.7823    0.0000 N   0  0  0  0  0  0  0  0  0  0  0  0
   -5.4307    1.2766    0.0000 C   0  0  0  0  0  0  0  0  0  0  0  0
   -6.0753   -0.0778    0.0000 C   0  0  0  0  0  0  0  0  0  0  0  0
   -7.5705   -0.1969    0.0000 C   0  0  0  0  0  0  0  0  0  0  0  0
   -8.3531   -1.4765    0.0000 C   0  0  0  0  0  0  0  0  0  0  0  0
   -9.8120   -1.1277    0.0000 N   0  0  0  0  0  0  0  0  0  0  0  0
   -9.9310    0.3676    0.0000 C   0  0  0  0  0  0  0  0  0  0  0  0
   -8.5457    0.9429    0.0000 N   0  0  0  0  0  0  0  0  0  0  0  0
   -6.7076    2.0638    0.0000 C   0  0  0  0  0  0  0  0  0  0  0  0
   -7.6282    0.8796    0.0000 O   0  0  0  0  0  0  0  0  0  0  0  0
   -7.7853    3.1071    0.0000 N   0  0  0  0  0  0  0  0  0  0  0  0
   -8.6136    4.3577    0.0000 C   0  0  0  0  0  0  0  0  0  0  0  0
   -9.9464    3.6695    0.0000 C   0  0  0  0  0  0  0  0  0  0  0  0
  -11.2088    4.4796    0.0000 C   0  0  0  0  0  0  0  0  0  0  0  0
  -12.5416    3.7914    0.0000 C   0  0  0  0  0  0  0  0  0  0  0  0
  -13.8040    4.6015    0.0000 N   0  0  0  0  0  0  0  0  0  0  0  0
  -12.6120    2.2931    0.0000 O   0  0  0  0  0  0  0  0  0  0  0  0
   -9.1537    5.7571    0.0000 C   0  0  0  0  0  0  0  0  0  0  0  0
  -10.6033    5.3715    0.0000 O   0  0  0  0  0  0  0  0  0  0  0  0
   -9.3803    7.2399    0.0000 N   0  0  0  0  0  0  0  0  0  0  0  0
   -9.2829    8.7367    0.0000 C   0  0  0  0  0  0  0  0  0  0  0  0
   -8.8660   10.1776    0.0000 C   0  0  0  0  0  0  0  0  0  0  0  0
  -10.2533   10.7479    0.0000 O   0  0  0  0  0  0  0  0  0  0  0  0
   -8.1490   11.4952    0.0000 N   0  0  0  0  0  0  0  0  0  0  0  0
   -7.1656   12.6278    0.0000 C   0  0  0  0  0  0  0  0  0  0  0  0
   -8.1853   13.7279    0.0000 C   0  0  0  0  0  0  0  0  0  0  0  0
   -7.7424   15.1611    0.0000 C   0  0  0  0  0  0  0  0  0  0  0  0
   -8.7621   16.2612    0.0000 C   0  0  0  0  0  0  0  0  0  0  0  0
   -8.3193   17.6943    0.0000 N   0  0  0  0  0  0  0  0  0  0  0  0
  -10.2247   15.9282    0.0000 O   0  0  0  0  0  0  0  0  0  0  0  0
   -5.9617   13.5226    0.0000 C   0  0  0  0  0  0  0  0  0  0  0  0
   -6.7211   14.8162    0.0000 O   0  0  0  0  0  0  0  0  0  0  0  0
   -4.5936   14.1377    0.0000 N   0  0  0  0  0  0  0  0  0  0  0  0
   -3.5633   18.9229    0.0000 C   0  0  0  0  0  0  0  0  0  0  0  0
   -3.7093   20.4157    0.0000 N   0  0  0  0  0  0  0  0  0  0  0  0
   -4.7832   18.0500    0.0000 O   0  0  0  0  0  0  0  0  0  0  0  0
  1  2  1  0
  2  3  1  0
  3  4  1  1
  3  5  1  0
  5  6  1  6
  6  7  1  0
  7  8  2  0
  9  7  1  6
  9 10  1  0
 10 11  1  0
 11 12  2  0
 11 13  1  0
 13 14  1  0
 14 15  1  0
 15 16  1  6
 16 17  1  0
 17 18  2  0
 17 19  1  0
 19 20  1  6
 20 21  1  0
 21 22  1  0
 22 23  1  0
 19 24  1  0
 24 25  1  0
 25 26  1  0
 25 27  2  0
 15 28  1  0
 28 29  2  0
 28 30  1  0
 31 30  1  1
 31 32  1  0
 32 33  1  6
 32 34  1  0
 34 35  1  0
 31 36  1  0
 36 37  2  0
 36 38  1  0
 38 39  1  0
 39 40  1  1
 40 41  1  0
 41 42  1  0
 42 43  1  0
 43 44  1  0
 39 45  1  0
 45 46  2  0
 45 47  1  0
 47 48  1  0
 48 49  1  0
 49 50  1  0
 51 50  1  1
 51 52  1  0
 52 53  2  0
 52 54  1  0
 54 55  1  0
 55 56  1  1
 56 57  1  0
 57 58  2  0
 58 59  1  0
 59 60  2  0
 60 61  1  0
 55 62  1  0
 62 63  2  0
 62 64  1  0
 64 65  1  0
 65 66  1  1
 66 67  1  0
 67 68  1  0
 68 69  1  0
 68 70  2  0
 65 71  1  0
 71 72  2  0
 71 73  1  0
 73 74  1  0
 74 75  1  0
 75 76  2  0
 75 77  1  0
 77 78  1  0
 78 79  1  1
 79 80  1  0
 80 81  1  0
 81 82  1  0
 81 83  2  0
 78 84  1  0
 84 85  2  0
 84 86  1  0
  5 87  1  0
 87 88  1  0
 87 89  2  0
 86  9  1  0
 51 47  1  0
 61 57  1  0
M  END
>  <Molecule ChEMBL ID>  (28) 
CHEMBL2367589

>  <Smiles>  (28) 
CC[C@H](C)[C@H](NC(=O)[C@@H]1CC(=O)NC[C@H](NC(=O)[C@H](CCSC)NC(C)=O)C(=O)N[C@@H]([C@@H](C)CC)C(=O)N[C@@H](CCCCN)C(=O)N2CCC[C@H]2C(=O)N[C@@H](Cc2cnc[nH]2)C(=O)N[C@@H](CCC(N)=O)C(=O)NCC(=O)N[C@@H](CCC(N)=O)C(=O)N1)C(N)=O

>  <pChEMBL Value>  (28) 
4.06

>  <similarity>  (28) 
0.06666666666666667

$$$$

     RDKit          2D

 29 33  0  0  0  0  0  0  0  0999 V2000
   -0.0000   -5.1073    0.0000 O   0  0  0  0  0  0  0  0  0  0  0  0
   -0.0000   -3.6073    0.0000 C   0  0  0  0  0  0  0  0  0  0  0  0
    1.2135   -2.7256    0.0000 N   0  0  0  0  0  0  0  0  0  0  0  0
    0.7500   -1.2990    0.0000 C   0  0  0  0  0  0  0  0  0  0  0  0
    1.5000    0.0000    0.0000 C   0  0  0  0  0  0  0  0  0  0  0  0
    3.0000    0.0000    0.0000 C   0  0  0  0  0  0  0  0  0  0  0  0
    3.7500   -1.2990    0.0000 O   0  0  0  0  0  0  0  0  0  0  0  0
    3.7500    1.2990    0.0000 O   0  0  0  0  0  0  0  0  0  0  0  0
    0.7500    1.2990    0.0000 C   0  0  0  0  0  0  0  0  0  0  0  0
   -0.7500    1.2990    0.0000 C   0  0  0  0  0  0  0  0  0  0  0  0
   -1.5000    0.0000    0.0000 C   0  0  0  0  0  0  0  0  0  0  0  0
   -0.7500   -1.2990    0.0000 C   0  0  0  0  0  0  0  0  0  0  0  0
   -1.2135   -2.7256    0.0000 C   0  0  0  0  0  0  0  0  0  0  0  0
   -2.6401   -3.1891    0.0000 C   0  0  0  0  0  0  0  0  0  0  0  0
   -2.9520   -4.6564    0.0000 C   0  0  0  0  0  0  0  0  0  0  0  0
   -4.3786   -5.1199    0.0000 C   0  0  0  0  0  0  0  0  0  0  0  0
   -4.6904   -6.5871    0.0000 C   0  0  0  0  0  0  0  0  0  0  0  0
   -3.5757   -7.5908    0.0000 C   0  0  0  0  0  0  0  0  0  0  0  0
   -2.1491   -7.1273    0.0000 C   0  0  0  0  0  0  0  0  0  0  0  0
   -1.8373   -5.6601    0.0000 C   0  0  0  0  0  0  0  0  0  0  0  0
   -3.7548   -2.1855    0.0000 C   0  0  0  0  0  0  0  0  0  0  0  0
   -3.5980   -0.6937    0.0000 N   0  0  0  0  0  0  0  0  0  0  0  0
   -4.9684   -0.0836    0.0000 C   0  0  0  0  0  0  0  0  0  0  0  0
   -5.4319    1.3430    0.0000 C   0  0  0  0  0  0  0  0  0  0  0  0
   -6.8991    1.6549    0.0000 C   0  0  0  0  0  0  0  0  0  0  0  0
   -7.9028    0.5402    0.0000 C   0  0  0  0  0  0  0  0  0  0  0  0
   -7.4393   -0.8864    0.0000 C   0  0  0  0  0  0  0  0  0  0  0  0
   -5.9720   -1.1983    0.0000 C   0  0  0  0  0  0  0  0  0  0  0  0
   -5.2220   -2.4973    0.0000 N   0  0  0  0  0  0  0  0  0  0  0  0
  1  2  2  0
  2  3  1  0
  3  4  1  0
  4  5  2  0
  5  6  1  0
  6  7  2  0
  6  8  1  0
  5  9  1  0
  9 10  2  0
 10 11  1  0
 11 12  2  0
 12 13  1  0
 13 14  2  3
 14 15  1  0
 15 16  2  0
 16 17  1  0
 17 18  2  0
 18 19  1  0
 19 20  2  0
 14 21  1  0
 21 22  2  0
 22 23  1  0
 23 24  2  0
 24 25  1  0
 25 26  2  0
 26 27  1  0
 27 28  2  0
 28 29  1  0
 13  2  1  0
 20 15  1  0
 29 21  1  0
 12  4  1  0
 28 23  1  0
M  END
>  <Molecule ChEMBL ID>  (29) 
CHEMBL2086738

>  <Smiles>  (29) 
O=C1Nc2c(C(=O)O)cccc2C1=C(c1ccccc1)c1nc2ccccc2[nH]1

>  <pChEMBL Value>  (29) 
4.68

>  <similarity>  (29) 
0.21621621621621623

$$$$

     RDKit          2D

 30 34  0  0  0  0  0  0  0  0999 V2000
  -11.4554   -5.3971    0.0000 N   0  0  0  0  0  0  0  0  0  0  0  0
  -10.1563   -4.6471    0.0000 C   0  0  0  0  0  0  0  0  0  0  0  0
  -10.1563   -3.1471    0.0000 N   0  0  0  0  0  0  0  0  0  0  0  0
   -8.8573   -2.3971    0.0000 C   0  0  0  0  0  0  0  0  0  0  0  0
   -8.8573   -0.8971    0.0000 N   0  0  0  0  0  0  0  0  0  0  0  0
  -10.1563   -0.1471    0.0000 C   0  0  0  0  0  0  0  0  0  0  0  0
  -10.1563    1.3529    0.0000 C   0  0  0  0  0  0  0  0  0  0  0  0
  -11.4554    2.1029    0.0000 C   0  0  0  0  0  0  0  0  0  0  0  0
  -12.7544    1.3529    0.0000 C   0  0  0  0  0  0  0  0  0  0  0  0
  -12.7544   -0.1471    0.0000 C   0  0  0  0  0  0  0  0  0  0  0  0
  -14.0535   -0.8971    0.0000 Br  0  0  0  0  0  0  0  0  0  0  0  0
  -11.4554   -0.8971    0.0000 C   0  0  0  0  0  0  0  0  0  0  0  0
   -7.5583   -3.1471    0.0000 C   0  0  0  0  0  0  0  0  0  0  0  0
   -6.1317   -2.6836    0.0000 C   0  0  0  0  0  0  0  0  0  0  0  0
   -5.2500   -3.8971    0.0000 C   0  0  0  0  0  0  0  0  0  0  0  0
   -3.7500   -3.8971    0.0000 C   0  0  0  0  0  0  0  0  0  0  0  0
   -3.0000   -2.5981    0.0000 C   0  0  0  0  0  0  0  0  0  0  0  0
   -1.5000   -2.5981    0.0000 C   0  0  0  0  0  0  0  0  0  0  0  0
   -0.7500   -3.8971    0.0000 C   0  0  0  0  0  0  0  0  0  0  0  0
    0.7500   -3.8971    0.0000 C   0  0  0  0  0  0  0  0  0  0  0  0
    1.5000   -2.5981    0.0000 C   0  0  0  0  0  0  0  0  0  0  0  0
    0.7500   -1.2990    0.0000 C   0  0  0  0  0  0  0  0  0  0  0  0
    1.5000    0.0000    0.0000 C   0  0  0  0  0  0  0  0  0  0  0  0
    0.7500    1.2990    0.0000 C   0  0  0  0  0  0  0  0  0  0  0  0
   -0.7500    1.2990    0.0000 C   0  0  0  0  0  0  0  0  0  0  0  0
   -1.5000    0.0000    0.0000 C   0  0  0  0  0  0  0  0  0  0  0  0
   -0.7500   -1.2990    0.0000 C   0  0  0  0  0  0  0  0  0  0  0  0
   -6.1317   -5.1106    0.0000 N   0  0  0  0  0  0  0  0  0  0  0  0
   -7.5583   -4.6471    0.0000 C   0  0  0  0  0  0  0  0  0  0  0  0
   -8.8573   -5.3971    0.0000 N   0  0  0  0  0  0  0  0  0  0  0  0
  1  2  1  0
  2  3  2  0
  3  4  1  0
  4  5  1  0
  5  6  1  0
  6  7  2  0
  7  8  1  0
  8  9  2  0
  9 10  1  0
 10 11  1  0
 10 12  2  0
  4 13  2  0
 13 14  1  0
 14 15  2  0
 15 16  1  0
 16 17  1  0
 17 18  1  0
 18 19  2  0
 19 20  1  0
 20 21  2  0
 21 22  1  0
 22 23  2  0
 23 24  1  0
 24 25  2  0
 25 26  1  0
 26 27  2  0
 15 28  1  0
 28 29  1  0
 29 30  2  0
 30  2  1  0
 12  6  1  0
 29 13  1  0
 27 18  1  0
 27 22  1  0
M  END
>  <Molecule ChEMBL ID>  (30) 
CHEMBL484108

>  <Smiles>  (30) 
Nc1nc(Nc2cccc(Br)c2)c2cc(CCc3cccc4ccccc34)[nH]c2n1

>  <pChEMBL Value>  (30) 
4.95

>  <similarity>  (30) 
0.13414634146341464

$$$$

     RDKit          2D

 23 26  0  0  0  0  0  0  0  0999 V2000
    5.0916    7.7320    0.0000 N   0  0  0  0  0  0  0  0  0  0  0  0
    5.2484    6.2402    0.0000 C   0  0  0  0  0  0  0  0  0  0  0  0
    6.6187    5.6301    0.0000 N   0  0  0  0  0  0  0  0  0  0  0  0
    6.7755    4.1383    0.0000 C   0  0  0  0  0  0  0  0  0  0  0  0
    5.5620    3.2567    0.0000 C   0  0  0  0  0  0  0  0  0  0  0  0
    4.1917    3.8668    0.0000 C   0  0  0  0  0  0  0  0  0  0  0  0
    2.9781    2.9851    0.0000 C   0  0  0  0  0  0  0  0  0  0  0  0
    1.6078    3.5952    0.0000 C   0  0  0  0  0  0  0  0  0  0  0  0
    0.3943    2.7135    0.0000 C   0  0  0  0  0  0  0  0  0  0  0  0
   -1.0323    3.1771    0.0000 C   0  0  0  0  0  0  0  0  0  0  0  0
   -1.4958    4.6036    0.0000 C   0  0  0  0  0  0  0  0  0  0  0  0
   -0.4921    5.7184    0.0000 C   0  0  0  0  0  0  0  0  0  0  0  0
   -0.9556    7.1449    0.0000 C   0  0  0  0  0  0  0  0  0  0  0  0
   -2.4229    7.4568    0.0000 C   0  0  0  0  0  0  0  0  0  0  0  0
   -3.4266    6.3421    0.0000 C   0  0  0  0  0  0  0  0  0  0  0  0
   -2.9630    4.9155    0.0000 C   0  0  0  0  0  0  0  0  0  0  0  0
   -1.9140    1.9635    0.0000 N   0  0  0  0  0  0  0  0  0  0  0  0
   -1.0323    0.7500    0.0000 C   0  0  0  0  0  0  0  0  0  0  0  0
    0.3943    1.2135    0.0000 N   0  0  0  0  0  0  0  0  0  0  0  0
    1.2760    0.0000    0.0000 C   0  0  0  0  0  0  0  0  0  0  0  0
    0.3943   -1.2135    0.0000 C   0  0  0  0  0  0  0  0  0  0  0  0
   -1.0323   -0.7500    0.0000 S   0  0  0  0  0  0  0  0  0  0  0  0
    4.0349    5.3586    0.0000 N   0  0  0  0  0  0  0  0  0  0  0  0
  1  2  1  0
  2  3  2  0
  3  4  1  0
  4  5  2  0
  5  6  1  0
  6  7  1  0
  7  8  2  0
  8  9  1  0
  9 10  2  0
 10 11  1  0
 11 12  2  0
 12 13  1  0
 13 14  2  0
 14 15  1  0
 15 16  2  0
 10 17  1  0
 17 18  2  0
 18 19  1  0
 19 20  1  0
 20 21  1  0
 21 22  1  0
  6 23  2  0
 23  2  1  0
 19  9  1  0
 16 11  1  0
 22 18  1  0
M  END
>  <Molecule ChEMBL ID>  (31) 
CHEMBL524322

>  <Smiles>  (31) 
Nc1nccc(/C=C/c2c(-c3ccccc3)nc3n2CCS3)n1

>  <pChEMBL Value>  (31) 
4.64

>  <similarity>  (31) 
0.05952380952380952

$$$$

     RDKit          2D

 31 35  0  0  0  0  0  0  0  0999 V2000
   -6.4140    4.5616    0.0000 C   0  0  0  0  0  0  0  0  0  0  0  0
   -7.9140    4.5616    0.0000 C   0  0  0  0  0  0  0  0  0  0  0  0
   -8.6640    3.2626    0.0000 N   0  0  0  0  0  0  0  0  0  0  0  0
   -7.9140    1.9635    0.0000 C   0  0  0  0  0  0  0  0  0  0  0  0
   -8.6640    0.6645    0.0000 N   0  0  0  0  0  0  0  0  0  0  0  0
   -7.9140   -0.6346    0.0000 C   0  0  0  0  0  0  0  0  0  0  0  0
   -6.4140   -0.6346    0.0000 C   0  0  0  0  0  0  0  0  0  0  0  0
   -5.6640    0.6645    0.0000 C   0  0  0  0  0  0  0  0  0  0  0  0
   -4.1640    0.6645    0.0000 C   0  0  0  0  0  0  0  0  0  0  0  0
   -3.4140    1.9635    0.0000 C   0  0  0  0  0  0  0  0  0  0  0  0
   -1.9140    1.9635    0.0000 C   0  0  0  0  0  0  0  0  0  0  0  0
   -1.0323    3.1771    0.0000 C   0  0  0  0  0  0  0  0  0  0  0  0
   -1.4958    4.6036    0.0000 C   0  0  0  0  0  0  0  0  0  0  0  0
   -0.4921    5.7184    0.0000 C   0  0  0  0  0  0  0  0  0  0  0  0
   -0.9556    7.1449    0.0000 C   0  0  0  0  0  0  0  0  0  0  0  0
   -2.4229    7.4568    0.0000 C   0  0  0  0  0  0  0  0  0  0  0  0
   -3.4266    6.3421    0.0000 C   0  0  0  0  0  0  0  0  0  0  0  0
   -2.9630    4.9155    0.0000 C   0  0  0  0  0  0  0  0  0  0  0  0
    0.3943    2.7135    0.0000 N   0  0  0  0  0  0  0  0  0  0  0  0
    0.3943    1.2135    0.0000 C   0  0  0  0  0  0  0  0  0  0  0  0
    1.2760    0.0000    0.0000 S   0  0  0  0  0  0  0  0  0  0  0  0
    0.3943   -1.2135    0.0000 C   0  0  0  0  0  0  0  0  0  0  0  0
   -1.0323   -0.7500    0.0000 C   0  0  0  0  0  0  0  0  0  0  0  0
   -1.0323    0.7500    0.0000 N   0  0  0  0  0  0  0  0  0  0  0  0
   -6.4140    1.9635    0.0000 N   0  0  0  0  0  0  0  0  0  0  0  0
   -8.6640    5.8606    0.0000 C   0  0  0  0  0  0  0  0  0  0  0  0
  -10.1640    5.8606    0.0000 C   0  0  0  0  0  0  0  0  0  0  0  0
  -10.9140    7.1597    0.0000 C   0  0  0  0  0  0  0  0  0  0  0  0
  -10.1640    8.4587    0.0000 C   0  0  0  0  0  0  0  0  0  0  0  0
   -8.6640    8.4587    0.0000 C   0  0  0  0  0  0  0  0  0  0  0  0
   -7.9140    7.1597    0.0000 C   0  0  0  0  0  0  0  0  0  0  0  0
  1  2  1  0
  2  3  1  0
  3  4  1  0
  4  5  2  0
  5  6  1  0
  6  7  2  0
  7  8  1  0
  8  9  1  0
  9 10  2  0
 10 11  1  0
 11 12  2  0
 12 13  1  0
 13 14  2  0
 14 15  1  0
 15 16  2  0
 16 17  1  0
 17 18  2  0
 12 19  1  0
 19 20  2  0
 20 21  1  0
 21 22  1  0
 22 23  2  0
 23 24  1  0
  8 25  2  0
  2 26  1  0
 26 27  2  0
 27 28  1  0
 28 29  2  0
 29 30  1  0
 30 31  2  0
 25  4  1  0
 31 26  1  0
 24 11  1  0
 18 13  1  0
 24 20  1  0
M  END
>  <Molecule ChEMBL ID>  (32) 
CHEMBL502803

>  <Smiles>  (32) 
CC(Nc1nccc(/C=C/c2c(-c3ccccc3)nc3sccn23)n1)c1ccccc1

>  <pChEMBL Value>  (32) 
4.08

>  <similarity>  (32) 
0.0898876404494382

$$$$

     RDKit          2D

 37 41  0  0  0  0  0  0  0  0999 V2000
   -4.3786   -5.1199    0.0000 C   0  0  0  0  0  0  0  0  0  0  0  0
   -2.9520   -4.6564    0.0000 N   0  0  0  0  0  0  0  0  0  0  0  0
   -1.8373   -5.6601    0.0000 C   0  0  0  0  0  0  0  0  0  0  0  0
   -2.1491   -7.1273    0.0000 C   0  0  0  0  0  0  0  0  0  0  0  0
   -1.0344   -8.1310    0.0000 C   0  0  0  0  0  0  0  0  0  0  0  0
   -1.3463   -9.5982    0.0000 C   0  0  0  0  0  0  0  0  0  0  0  0
   -0.2316  -10.6019    0.0000 C   0  0  0  0  0  0  0  0  0  0  0  0
    1.1950  -10.1384    0.0000 C   0  0  0  0  0  0  0  0  0  0  0  0
    2.3097  -11.1421    0.0000 C   0  0  0  0  0  0  0  0  0  0  0  0
    1.9979  -12.6093    0.0000 C   0  0  0  0  0  0  0  0  0  0  0  0
    3.1126  -13.6130    0.0000 C   0  0  0  0  0  0  0  0  0  0  0  0
    4.5392  -13.1495    0.0000 C   0  0  0  0  0  0  0  0  0  0  0  0
    4.8510  -11.6822    0.0000 C   0  0  0  0  0  0  0  0  0  0  0  0
    3.7363  -10.6785    0.0000 C   0  0  0  0  0  0  0  0  0  0  0  0
    1.5069   -8.6712    0.0000 C   0  0  0  0  0  0  0  0  0  0  0  0
    0.3922   -7.6675    0.0000 C   0  0  0  0  0  0  0  0  0  0  0  0
   -2.6401   -3.1891    0.0000 C   0  0  0  0  0  0  0  0  0  0  0  0
   -1.2135   -2.7256    0.0000 C   0  0  0  0  0  0  0  0  0  0  0  0
    0.0000   -3.6073    0.0000 C   0  0  0  0  0  0  0  0  0  0  0  0
    1.2135   -2.7256    0.0000 N   0  0  0  0  0  0  0  0  0  0  0  0
    2.6401   -3.1891    0.0000 C   0  0  0  0  0  0  0  0  0  0  0  0
    0.7500   -1.2990    0.0000 C   0  0  0  0  0  0  0  0  0  0  0  0
    1.5000    0.0000    0.0000 C   0  0  0  0  0  0  0  0  0  0  0  0
    0.7500    1.2990    0.0000 C   0  0  0  0  0  0  0  0  0  0  0  0
   -0.7500    1.2990    0.0000 C   0  0  0  0  0  0  0  0  0  0  0  0
   -1.5000    2.5981    0.0000 C   0  0  0  0  0  0  0  0  0  0  0  0
   -3.0000    2.5981    0.0000 O   0  0  0  0  0  0  0  0  0  0  0  0
   -0.7500    3.8971    0.0000 N   0  0  0  0  0  0  0  0  0  0  0  0
   -1.5000    5.1962    0.0000 C   0  0  0  0  0  0  0  0  0  0  0  0
   -0.7500    6.4952    0.0000 C   0  0  0  0  0  0  0  0  0  0  0  0
   -1.5000    7.7942    0.0000 C   0  0  0  0  0  0  0  0  0  0  0  0
   -3.0000    7.7942    0.0000 C   0  0  0  0  0  0  0  0  0  0  0  0
   -3.7500    9.0933    0.0000 F   0  0  0  0  0  0  0  0  0  0  0  0
   -3.7500    6.4952    0.0000 C   0  0  0  0  0  0  0  0  0  0  0  0
   -3.0000    5.1962    0.0000 C   0  0  0  0  0  0  0  0  0  0  0  0
   -1.5000    0.0000    0.0000 C   0  0  0  0  0  0  0  0  0  0  0  0
   -0.7500   -1.2990    0.0000 C   0  0  0  0  0  0  0  0  0  0  0  0
  1  2  1  0
  2  3  1  0
  3  4  1  0
  4  5  1  0
  5  6  2  0
  6  7  1  0
  7  8  2  0
  8  9  1  0
  9 10  2  0
 10 11  1  0
 11 12  2  0
 12 13  1  0
 13 14  2  0
  8 15  1  0
 15 16  2  0
  2 17  1  0
 17 18  1  0
 18 19  2  0
 19 20  1  0
 20 21  1  0
 20 22  1  0
 22 23  2  0
 23 24  1  0
 24 25  2  0
 25 26  1  0
 26 27  2  0
 26 28  1  0
 28 29  1  0
 29 30  2  0
 30 31  1  0
 31 32  2  0
 32 33  1  0
 32 34  1  0
 34 35  2  0
 25 36  1  0
 36 37  2  0
 16  5  1  0
 37 18  1  0
 14  9  1  0
 37 22  1  0
 35 29  1  0
M  END
>  <Molecule ChEMBL ID>  (33) 
CHEMBL4446681

>  <Smiles>  (33) 
CN(CCc1ccc(-c2ccccc2)cc1)Cc1cn(C)c2ccc(C(=O)Nc3ccc(F)cc3)cc12

>  <pChEMBL Value>  (33) 
4.37

>  <similarity>  (33) 
0.21176470588235294

$$$$

     RDKit          2D

 28 32  0  0  0  0  0  0  0  0999 V2000
   -0.0000   -5.1073    0.0000 O   0  0  0  0  0  0  0  0  0  0  0  0
   -0.0000   -3.6073    0.0000 C   0  0  0  0  0  0  0  0  0  0  0  0
    1.2135   -2.7256    0.0000 N   0  0  0  0  0  0  0  0  0  0  0  0
    0.7500   -1.2990    0.0000 C   0  0  0  0  0  0  0  0  0  0  0  0
    1.5000    0.0000    0.0000 C   0  0  0  0  0  0  0  0  0  0  0  0
    0.7500    1.2990    0.0000 C   0  0  0  0  0  0  0  0  0  0  0  0
   -0.7500    1.2990    0.0000 C   0  0  0  0  0  0  0  0  0  0  0  0
   -1.5000    0.0000    0.0000 C   0  0  0  0  0  0  0  0  0  0  0  0
   -0.7500   -1.2990    0.0000 C   0  0  0  0  0  0  0  0  0  0  0  0
   -1.2135   -2.7256    0.0000 C   0  0  0  0  0  0  0  0  0  0  0  0
   -2.6401   -3.1891    0.0000 C   0  0  0  0  0  0  0  0  0  0  0  0
   -3.7548   -2.1855    0.0000 C   0  0  0  0  0  0  0  0  0  0  0  0
   -3.5980   -0.6937    0.0000 N   0  0  0  0  0  0  0  0  0  0  0  0
   -4.9684   -0.0836    0.0000 C   0  0  0  0  0  0  0  0  0  0  0  0
   -5.4319    1.3430    0.0000 C   0  0  0  0  0  0  0  0  0  0  0  0
   -6.8991    1.6549    0.0000 C   0  0  0  0  0  0  0  0  0  0  0  0
   -7.9028    0.5402    0.0000 C   0  0  0  0  0  0  0  0  0  0  0  0
   -7.4393   -0.8864    0.0000 C   0  0  0  0  0  0  0  0  0  0  0  0
   -5.9720   -1.1983    0.0000 C   0  0  0  0  0  0  0  0  0  0  0  0
   -5.2220   -2.4973    0.0000 N   0  0  0  0  0  0  0  0  0  0  0  0
   -2.9520   -4.6564    0.0000 C   0  0  0  0  0  0  0  0  0  0  0  0
   -1.8373   -5.6601    0.0000 C   0  0  0  0  0  0  0  0  0  0  0  0
   -2.1491   -7.1273    0.0000 C   0  0  0  0  0  0  0  0  0  0  0  0
   -3.5757   -7.5908    0.0000 C   0  0  0  0  0  0  0  0  0  0  0  0
   -3.8876   -9.0580    0.0000 Cl  0  0  0  0  0  0  0  0  0  0  0  0
   -4.6904   -6.5871    0.0000 C   0  0  0  0  0  0  0  0  0  0  0  0
   -4.3786   -5.1199    0.0000 C   0  0  0  0  0  0  0  0  0  0  0  0
   -5.4933   -4.1162    0.0000 Cl  0  0  0  0  0  0  0  0  0  0  0  0
  1  2  2  0
  2  3  1  0
  3  4  1  0
  4  5  2  0
  5  6  1  0
  6  7  2  0
  7  8  1  0
  8  9  2  0
  9 10  1  0
 10 11  2  3
 11 12  1  0
 12 13  2  0
 13 14  1  0
 14 15  2  0
 15 16  1  0
 16 17  2  0
 17 18  1  0
 18 19  2  0
 19 20  1  0
 11 21  1  0
 21 22  2  0
 22 23  1  0
 23 24  2  0
 24 25  1  0
 24 26  1  0
 26 27  2  0
 27 28  1  0
 10  2  1  0
 20 12  1  0
 27 21  1  0
  9  4  1  0
 19 14  1  0
M  END
>  <Molecule ChEMBL ID>  (34) 
CHEMBL2086729

>  <Smiles>  (34) 
O=C1Nc2ccccc2C1=C(c1nc2ccccc2[nH]1)c1ccc(Cl)cc1Cl

>  <pChEMBL Value>  (34) 
4.61

>  <similarity>  (34) 
0.1794871794871795

$$$$

     RDKit          2D

 26 29  0  0  0  0  0  0  0  0999 V2000
  -10.9140   -3.2326    0.0000 C   0  0  0  0  0  0  0  0  0  0  0  0
  -10.1640   -1.9336    0.0000 C   0  0  0  0  0  0  0  0  0  0  0  0
  -10.9140   -0.6346    0.0000 O   0  0  0  0  0  0  0  0  0  0  0  0
   -8.6640   -1.9336    0.0000 N   0  0  0  0  0  0  0  0  0  0  0  0
   -7.9140   -0.6346    0.0000 C   0  0  0  0  0  0  0  0  0  0  0  0
   -8.6640    0.6645    0.0000 N   0  0  0  0  0  0  0  0  0  0  0  0
   -7.9140    1.9635    0.0000 C   0  0  0  0  0  0  0  0  0  0  0  0
   -6.4140    1.9635    0.0000 C   0  0  0  0  0  0  0  0  0  0  0  0
   -5.6640    0.6645    0.0000 C   0  0  0  0  0  0  0  0  0  0  0  0
   -4.1640    0.6645    0.0000 C   0  0  0  0  0  0  0  0  0  0  0  0
   -3.4140    1.9635    0.0000 C   0  0  0  0  0  0  0  0  0  0  0  0
   -1.9140    1.9635    0.0000 C   0  0  0  0  0  0  0  0  0  0  0  0
   -1.0323    3.1771    0.0000 C   0  0  0  0  0  0  0  0  0  0  0  0
   -1.4958    4.6036    0.0000 C   0  0  0  0  0  0  0  0  0  0  0  0
   -0.4921    5.7184    0.0000 C   0  0  0  0  0  0  0  0  0  0  0  0
   -0.9556    7.1449    0.0000 C   0  0  0  0  0  0  0  0  0  0  0  0
   -2.4229    7.4568    0.0000 C   0  0  0  0  0  0  0  0  0  0  0  0
   -3.4266    6.3421    0.0000 C   0  0  0  0  0  0  0  0  0  0  0  0
   -2.9630    4.9155    0.0000 C   0  0  0  0  0  0  0  0  0  0  0  0
    0.3943    2.7135    0.0000 N   0  0  0  0  0  0  0  0  0  0  0  0
    0.3943    1.2135    0.0000 C   0  0  0  0  0  0  0  0  0  0  0  0
    1.2760    0.0000    0.0000 S   0  0  0  0  0  0  0  0  0  0  0  0
    0.3943   -1.2135    0.0000 C   0  0  0  0  0  0  0  0  0  0  0  0
   -1.0323   -0.7500    0.0000 C   0  0  0  0  0  0  0  0  0  0  0  0
   -1.0323    0.7500    0.0000 N   0  0  0  0  0  0  0  0  0  0  0  0
   -6.4140   -0.6346    0.0000 N   0  0  0  0  0  0  0  0  0  0  0  0
  1  2  1  0
  2  3  2  0
  2  4  1  0
  4  5  1  0
  5  6  2  0
  6  7  1  0
  7  8  2  0
  8  9  1  0
  9 10  1  0
 10 11  2  0
 11 12  1  0
 12 13  2  0
 13 14  1  0
 14 15  2  0
 15 16  1  0
 16 17  2  0
 17 18  1  0
 18 19  2  0
 13 20  1  0
 20 21  2  0
 21 22  1  0
 22 23  1  0
 23 24  2  0
 24 25  1  0
  9 26  2  0
 26  5  1  0
 25 12  1  0
 19 14  1  0
 25 21  1  0
M  END
>  <Molecule ChEMBL ID>  (35) 
CHEMBL503074

>  <Smiles>  (35) 
CC(=O)Nc1nccc(/C=C/c2c(-c3ccccc3)nc3sccn23)n1

>  <pChEMBL Value>  (35) 
4.0

>  <similarity>  (35) 
0.13095238095238096

$$$$

     RDKit          2D

 23 25  0  0  0  0  0  0  0  0999 V2000
    3.0000   -5.1962    0.0000 C   0  0  0  0  0  0  0  0  0  0  0  0
    1.5000   -5.1962    0.0000 O   0  0  0  0  0  0  0  0  0  0  0  0
    0.7500   -3.8971    0.0000 C   0  0  0  0  0  0  0  0  0  0  0  0
    1.5000   -2.5981    0.0000 C   0  0  0  0  0  0  0  0  0  0  0  0
    0.7500   -1.2990    0.0000 C   0  0  0  0  0  0  0  0  0  0  0  0
    1.5000    0.0000    0.0000 N   0  0  0  0  0  0  0  0  0  0  0  0
    0.7500    1.2990    0.0000 C   0  0  0  0  0  0  0  0  0  0  0  0
   -0.7500    1.2990    0.0000 N   0  0  0  0  0  0  0  0  0  0  0  0
   -1.5000    0.0000    0.0000 C   0  0  0  0  0  0  0  0  0  0  0  0
   -3.0000    0.0000    0.0000 N   0  0  0  0  0  0  0  0  0  0  0  0
   -3.7500    1.2990    0.0000 C   0  0  0  0  0  0  0  0  0  0  0  0
   -3.0000    2.5981    0.0000 C   0  0  0  0  0  0  0  0  0  0  0  0
   -3.7500    3.8971    0.0000 C   0  0  0  0  0  0  0  0  0  0  0  0
   -5.2500    3.8971    0.0000 C   0  0  0  0  0  0  0  0  0  0  0  0
   -6.0000    5.1962    0.0000 Cl  0  0  0  0  0  0  0  0  0  0  0  0
   -6.0000    2.5981    0.0000 C   0  0  0  0  0  0  0  0  0  0  0  0
   -5.2500    1.2990    0.0000 C   0  0  0  0  0  0  0  0  0  0  0  0
   -6.0000    0.0000    0.0000 F   0  0  0  0  0  0  0  0  0  0  0  0
   -0.7500   -1.2990    0.0000 C   0  0  0  0  0  0  0  0  0  0  0  0
   -1.5000   -2.5981    0.0000 C   0  0  0  0  0  0  0  0  0  0  0  0
   -0.7500   -3.8971    0.0000 C   0  0  0  0  0  0  0  0  0  0  0  0
   -1.5000   -5.1962    0.0000 O   0  0  0  0  0  0  0  0  0  0  0  0
   -3.0000   -5.1962    0.0000 C   0  0  0  0  0  0  0  0  0  0  0  0
  1  2  1  0
  2  3  1  0
  3  4  2  0
  4  5  1  0
  5  6  2  0
  6  7  1  0
  7  8  2  0
  8  9  1  0
  9 10  1  0
 10 11  1  0
 11 12  2  0
 12 13  1  0
 13 14  2  0
 14 15  1  0
 14 16  1  0
 16 17  2  0
 17 18  1  0
  9 19  2  0
 19 20  1  0
 20 21  2  0
 21 22  1  0
 22 23  1  0
 21  3  1  0
 19  5  1  0
 17 11  1  0
M  END
>  <Molecule ChEMBL ID>  (36) 
CHEMBL150315

>  <Smiles>  (36) 
COc1cc2ncnc(Nc3ccc(Cl)cc3F)c2cc1OC

>  <pChEMBL Value>  (36) 
4.75

>  <similarity>  (36) 
0.1038961038961039

$$$$

     RDKit          2D

 34 38  0  0  0  0  0  0  0  0999 V2000
    9.0000    2.5981    0.0000 C   0  0  0  0  0  0  0  0  0  0  0  0
    7.5000    2.5981    0.0000 C   0  0  0  0  0  0  0  0  0  0  0  0
    6.7500    1.2990    0.0000 C   0  0  0  0  0  0  0  0  0  0  0  0
    5.2500    1.2990    0.0000 C   0  0  0  0  0  0  0  0  0  0  0  0
    4.5000    0.0000    0.0000 N   0  0  0  0  0  0  0  0  0  0  0  0
    3.0000    0.0000    0.0000 S   0  0  0  0  0  0  0  0  0  0  0  0
    3.0000   -1.5000    0.0000 O   0  0  0  0  0  0  0  0  0  0  0  0
    3.0000    1.5000    0.0000 O   0  0  0  0  0  0  0  0  0  0  0  0
    1.5000    0.0000    0.0000 C   0  0  0  0  0  0  0  0  0  0  0  0
    0.7500   -1.2990    0.0000 C   0  0  0  0  0  0  0  0  0  0  0  0
   -0.7500   -1.2990    0.0000 C   0  0  0  0  0  0  0  0  0  0  0  0
   -1.5000    0.0000    0.0000 C   0  0  0  0  0  0  0  0  0  0  0  0
   -0.7500    1.2990    0.0000 C   0  0  0  0  0  0  0  0  0  0  0  0
    0.7500    1.2990    0.0000 C   0  0  0  0  0  0  0  0  0  0  0  0
   -1.7537    2.4138    0.0000 C   0  0  0  0  0  0  0  0  0  0  0  0
   -1.4418    3.8810    0.0000 C   0  0  0  0  0  0  0  0  0  0  0  0
   -2.5565    4.8847    0.0000 C   0  0  0  0  0  0  0  0  0  0  0  0
   -2.2447    6.3519    0.0000 C   0  0  0  0  0  0  0  0  0  0  0  0
   -3.3594    7.3556    0.0000 C   0  0  0  0  0  0  0  0  0  0  0  0
   -4.7860    6.8921    0.0000 C   0  0  0  0  0  0  0  0  0  0  0  0
   -5.0978    5.4248    0.0000 C   0  0  0  0  0  0  0  0  0  0  0  0
   -3.9831    4.4211    0.0000 C   0  0  0  0  0  0  0  0  0  0  0  0
   -0.0152    4.3445    0.0000 C   0  0  0  0  0  0  0  0  0  0  0  0
    1.1983    3.4628    0.0000 N   0  0  0  0  0  0  0  0  0  0  0  0
    2.4118    4.3445    0.0000 C   0  0  0  0  0  0  0  0  0  0  0  0
    3.8790    4.0326    0.0000 C   0  0  0  0  0  0  0  0  0  0  0  0
    4.8827    5.1474    0.0000 C   0  0  0  0  0  0  0  0  0  0  0  0
    4.4192    6.5739    0.0000 C   0  0  0  0  0  0  0  0  0  0  0  0
    2.9520    6.8858    0.0000 C   0  0  0  0  0  0  0  0  0  0  0  0
    1.9483    5.7711    0.0000 C   0  0  0  0  0  0  0  0  0  0  0  0
    0.4483    5.7711    0.0000 N   0  0  0  0  0  0  0  0  0  0  0  0
   -3.1240    1.8037    0.0000 C   0  0  0  0  0  0  0  0  0  0  0  0
   -4.4231    2.5537    0.0000 O   0  0  0  0  0  0  0  0  0  0  0  0
   -2.9672    0.3119    0.0000 N   0  0  0  0  0  0  0  0  0  0  0  0
  1  2  1  0
  2  3  1  0
  3  4  1  0
  4  5  1  0
  5  6  1  0
  6  7  2  0
  6  8  2  0
  6  9  1  0
  9 10  2  0
 10 11  1  0
 11 12  2  0
 12 13  1  0
 13 14  2  0
 13 15  1  0
 15 16  2  3
 16 17  1  0
 17 18  2  0
 18 19  1  0
 19 20  2  0
 20 21  1  0
 21 22  2  0
 16 23  1  0
 23 24  2  0
 24 25  1  0
 25 26  2  0
 26 27  1  0
 27 28  2  0
 28 29  1  0
 29 30  2  0
 30 31  1  0
 15 32  1  0
 32 33  2  0
 32 34  1  0
 14  9  1  0
 22 17  1  0
 31 23  1  0
 34 12  1  0
 30 25  1  0
M  END
>  <Molecule ChEMBL ID>  (37) 
CHEMBL2086746

>  <Smiles>  (37) 
CCCCNS(=O)(=O)c1ccc2c(c1)C(=C(c1ccccc1)c1nc3ccccc3[nH]1)C(=O)N2

>  <pChEMBL Value>  (37) 
4.61

>  <similarity>  (37) 
0.16853932584269662

$$$$

     RDKit          2D

 79 81  0  0  0  0  0  0  0  0999 V2000
   -2.0338   18.7696    0.0000 C   0  0  0  0  0  0  0  0  0  0  0  0
   -2.8958   17.5420    0.0000 C   0  0  0  0  0  0  0  0  0  0  0  0
   -4.3899   17.6747    0.0000 C   0  0  0  0  0  0  0  0  0  0  0  0
   -5.0220   19.0351    0.0000 C   0  0  0  0  0  0  0  0  0  0  0  0
   -5.2520   16.4472    0.0000 C   0  0  0  0  0  0  0  0  0  0  0  0
   -4.6199   15.0869    0.0000 N   0  0  0  0  0  0  0  0  0  0  0  0
   -5.4819   13.8593    0.0000 C   0  0  0  0  0  0  0  0  0  0  0  0
   -6.9760   13.9920    0.0000 O   0  0  0  0  0  0  0  0  0  0  0  0
   -4.8498   12.4990    0.0000 C   0  0  0  0  0  0  0  0  0  0  0  0
   -3.4232   12.9625    0.0000 C   0  0  0  0  0  0  0  0  0  0  0  0
   -1.9271   13.0712    0.0000 C   0  0  0  0  0  0  0  0  0  0  0  0
   -0.4485   12.8186    0.0000 C   0  0  0  0  0  0  0  0  0  0  0  0
    0.9267   12.2196    0.0000 C   0  0  0  0  0  0  0  0  0  0  0  0
    2.1185   11.3088    0.0000 C   0  0  0  0  0  0  0  0  0  0  0  0
    3.1663   12.3822    0.0000 N   0  0  0  0  0  0  0  0  0  0  0  0
    2.7606   13.8263    0.0000 C   0  0  0  0  0  0  0  0  0  0  0  0
    1.3071   14.1970    0.0000 O   0  0  0  0  0  0  0  0  0  0  0  0
    3.8084   14.8997    0.0000 C   0  0  0  0  0  0  0  0  0  0  0  0
    3.4026   16.3438    0.0000 C   0  0  0  0  0  0  0  0  0  0  0  0
    4.4504   17.4172    0.0000 C   0  0  0  0  0  0  0  0  0  0  0  0
    4.0447   18.8613    0.0000 S   0  0  0  0  0  0  0  0  0  0  0  0
    5.0925   19.9347    0.0000 C   0  0  0  0  0  0  0  0  0  0  0  0
    5.2618   14.5290    0.0000 N   0  0  0  0  0  0  0  0  0  0  0  0
    6.3096   15.6024    0.0000 C   0  0  0  0  0  0  0  0  0  0  0  0
    7.7631   15.2317    0.0000 C   0  0  0  0  0  0  0  0  0  0  0  0
    5.9039   17.0465    0.0000 O   0  0  0  0  0  0  0  0  0  0  0  0
    3.0578   10.1393    0.0000 C   0  0  0  0  0  0  0  0  0  0  0  0
    4.3320   10.9308    0.0000 O   0  0  0  0  0  0  0  0  0  0  0  0
    3.6899    8.7790    0.0000 N   0  0  0  0  0  0  0  0  0  0  0  0
    3.9781    7.3070    0.0000 C   0  0  0  0  0  0  0  0  0  0  0  0
    5.4742    7.4156    0.0000 C   0  0  0  0  0  0  0  0  0  0  0  0
    6.3163    6.1743    0.0000 C   0  0  0  0  0  0  0  0  0  0  0  0
    6.1281    8.7656    0.0000 C   0  0  0  0  0  0  0  0  0  0  0  0
    7.6241    8.8742    0.0000 C   0  0  0  0  0  0  0  0  0  0  0  0
    3.9056    5.8087    0.0000 C   0  0  0  0  0  0  0  0  0  0  0  0
    5.3842    5.5562    0.0000 O   0  0  0  0  0  0  0  0  0  0  0  0
    3.4767    4.3713    0.0000 N   0  0  0  0  0  0  0  0  0  0  0  0
    2.7163    3.0784    0.0000 C   0  0  0  0  0  0  0  0  0  0  0  0
    3.9081    2.1676    0.0000 C   0  0  0  0  0  0  0  0  0  0  0  0
    5.2928    2.7445    0.0000 C   0  0  0  0  0  0  0  0  0  0  0  0
    6.4847    1.8337    0.0000 C   0  0  0  0  0  0  0  0  0  0  0  0
    7.8693    2.4105    0.0000 C   0  0  0  0  0  0  0  0  0  0  0  0
    9.0612    1.4998    0.0000 N   0  0  0  0  0  0  0  0  0  0  0  0
    1.6685    2.0050    0.0000 C   0  0  0  0  0  0  0  0  0  0  0  0
    2.6078    0.8355    0.0000 O   0  0  0  0  0  0  0  0  0  0  0  0
    0.3943    1.2135    0.0000 N   0  0  0  0  0  0  0  0  0  0  0  0
    1.2760    0.0000    0.0000 C   0  0  0  0  0  0  0  0  0  0  0  0
    0.3943   -1.2135    0.0000 C   0  0  0  0  0  0  0  0  0  0  0  0
   -1.0323   -0.7500    0.0000 C   0  0  0  0  0  0  0  0  0  0  0  0
   -1.0323    0.7500    0.0000 C   0  0  0  0  0  0  0  0  0  0  0  0
   -2.5283    0.6413    0.0000 C   0  0  0  0  0  0  0  0  0  0  0  0
   -2.6008   -0.8569    0.0000 O   0  0  0  0  0  0  0  0  0  0  0  0
   -4.0069    0.8939    0.0000 N   0  0  0  0  0  0  0  0  0  0  0  0
   -5.3821    1.4929    0.0000 C   0  0  0  0  0  0  0  0  0  0  0  0
   -6.1426    0.2000    0.0000 C   0  0  0  0  0  0  0  0  0  0  0  0
   -5.4031   -1.1051    0.0000 C   0  0  0  0  0  0  0  0  0  0  0  0
   -6.0242   -2.4704    0.0000 C   0  0  0  0  0  0  0  0  0  0  0  0
   -4.9176   -3.4831    0.0000 N   0  0  0  0  0  0  0  0  0  0  0  0
   -3.6125   -2.7436    0.0000 C   0  0  0  0  0  0  0  0  0  0  0  0
   -3.9126   -1.2739    0.0000 N   0  0  0  0  0  0  0  0  0  0  0  0
   -6.5740    2.4037    0.0000 C   0  0  0  0  0  0  0  0  0  0  0  0
   -7.6218    1.3303    0.0000 O   0  0  0  0  0  0  0  0  0  0  0  0
   -7.5133    3.5732    0.0000 N   0  0  0  0  0  0  0  0  0  0  0  0
   -8.1454    4.9335    0.0000 C   0  0  0  0  0  0  0  0  0  0  0  0
   -8.4336    6.4056    0.0000 C   0  0  0  0  0  0  0  0  0  0  0  0
   -9.9296    6.2969    0.0000 O   0  0  0  0  0  0  0  0  0  0  0  0
   -8.3611    7.9038    0.0000 N   0  0  0  0  0  0  0  0  0  0  0  0
   -7.9322    9.3412    0.0000 C   0  0  0  0  0  0  0  0  0  0  0  0
   -9.3074    9.9402    0.0000 C   0  0  0  0  0  0  0  0  0  0  0  0
   -9.4762   11.4307    0.0000 C   0  0  0  0  0  0  0  0  0  0  0  0
  -10.8514   12.0297    0.0000 C   0  0  0  0  0  0  0  0  0  0  0  0
  -11.0202   13.5202    0.0000 N   0  0  0  0  0  0  0  0  0  0  0  0
  -12.0577   11.1383    0.0000 O   0  0  0  0  0  0  0  0  0  0  0  0
   -7.1717   10.6341    0.0000 C   0  0  0  0  0  0  0  0  0  0  0  0
   -8.3636   11.5449    0.0000 O   0  0  0  0  0  0  0  0  0  0  0  0
   -6.1240   11.7075    0.0000 N   0  0  0  0  0  0  0  0  0  0  0  0
   -6.7461   16.5799    0.0000 C   0  0  0  0  0  0  0  0  0  0  0  0
   -7.3782   17.9402    0.0000 N   0  0  0  0  0  0  0  0  0  0  0  0
   -7.6081   15.3523    0.0000 O   0  0  0  0  0  0  0  0  0  0  0  0
  1  2  1  0
  2  3  1  0
  3  4  1  1
  3  5  1  0
  5  6  1  6
  6  7  1  0
  7  8  2  0
  9  7  1  6
  9 10  1  0
 10 11  1  0
 11 12  1  0
 12 13  1  0
 13 14  1  0
 14 15  1  6
 15 16  1  0
 16 17  2  0
 16 18  1  0
 18 19  1  6
 19 20  1  0
 20 21  1  0
 21 22  1  0
 18 23  1  0
 23 24  1  0
 24 25  1  0
 24 26  2  0
 14 27  1  0
 27 28  2  0
 27 29  1  0
 30 29  1  1
 30 31  1  0
 31 32  1  6
 31 33  1  0
 33 34  1  0
 30 35  1  0
 35 36  2  0
 35 37  1  0
 37 38  1  0
 38 39  1  6
 39 40  1  0
 40 41  1  0
 41 42  1  0
 42 43  1  0
 38 44  1  0
 44 45  2  0
 44 46  1  0
 46 47  1  0
 47 48  1  0
 48 49  1  0
 50 49  1  1
 50 51  1  0
 51 52  2  0
 51 53  1  0
 53 54  1  0
 54 55  1  1
 55 56  1  0
 56 57  2  0
 57 58  1  0
 58 59  2  0
 59 60  1  0
 54 61  1  0
 61 62  2  0
 61 63  1  0
 63 64  1  0
 64 65  1  0
 65 66  2  0
 65 67  1  0
 67 68  1  0
 68 69  1  1
 69 70  1  0
 70 71  1  0
 71 72  1  0
 71 73  2  0
 68 74  1  0
 74 75  2  0
 74 76  1  0
  5 77  1  0
 77 78  1  0
 77 79  2  0
 76  9  1  0
 50 46  1  0
 60 56  1  0
M  END
>  <Molecule ChEMBL ID>  (38) 
CHEMBL1684372

>  <Smiles>  (38) 
CC[C@H](C)[C@H](NC(=O)[C@@H]1CCCC[C@H](NC(=O)[C@H](CCSC)NC(C)=O)C(=O)N[C@@H]([C@@H](C)CC)C(=O)N[C@H](CCCCN)C(=O)N2CCC[C@H]2C(=O)N[C@@H](Cc2cnc[nH]2)C(=O)NCC(=O)N[C@@H](CCC(N)=O)C(=O)N1)C(N)=O

>  <pChEMBL Value>  (38) 
4.04

>  <similarity>  (38) 
0.06666666666666667

$$$$

     RDKit          2D

 29 32  0  0  0  0  0  0  0  0999 V2000
    6.1865    6.4289    0.0000 C   0  0  0  0  0  0  0  0  0  0  0  0
    4.7193    6.1170    0.0000 O   0  0  0  0  0  0  0  0  0  0  0  0
    4.2558    4.6904    0.0000 C   0  0  0  0  0  0  0  0  0  0  0  0
    5.2595    3.5757    0.0000 C   0  0  0  0  0  0  0  0  0  0  0  0
    4.7960    2.1491    0.0000 C   0  0  0  0  0  0  0  0  0  0  0  0
    3.3287    1.8373    0.0000 C   0  0  0  0  0  0  0  0  0  0  0  0
    2.8652    0.4107    0.0000 O   0  0  0  0  0  0  0  0  0  0  0  0
    3.8689   -0.7040    0.0000 C   0  0  0  0  0  0  0  0  0  0  0  0
    2.3250    2.9520    0.0000 C   0  0  0  0  0  0  0  0  0  0  0  0
    0.8578    2.6401    0.0000 C   0  0  0  0  0  0  0  0  0  0  0  0
    0.3943    1.2135    0.0000 C   0  0  0  0  0  0  0  0  0  0  0  0
    1.2760    0.0000    0.0000 C   0  0  0  0  0  0  0  0  0  0  0  0
    0.3943   -1.2135    0.0000 C   0  0  0  0  0  0  0  0  0  0  0  0
    0.7062   -2.6807    0.0000 C   0  0  0  0  0  0  0  0  0  0  0  0
    2.1328   -3.1443    0.0000 N   0  0  0  0  0  0  0  0  0  0  0  0
    2.4446   -4.6115    0.0000 C   0  0  0  0  0  0  0  0  0  0  0  0
    1.3299   -5.6152    0.0000 C   0  0  0  0  0  0  0  0  0  0  0  0
    1.6418   -7.0824    0.0000 C   0  0  0  0  0  0  0  0  0  0  0  0
    3.0684   -7.5459    0.0000 C   0  0  0  0  0  0  0  0  0  0  0  0
    3.3802   -9.0132    0.0000 Cl  0  0  0  0  0  0  0  0  0  0  0  0
    4.1831   -6.5422    0.0000 C   0  0  0  0  0  0  0  0  0  0  0  0
    3.8712   -5.0750    0.0000 C   0  0  0  0  0  0  0  0  0  0  0  0
   -0.4086   -3.6844    0.0000 N   0  0  0  0  0  0  0  0  0  0  0  0
   -1.8351   -3.2209    0.0000 C   0  0  0  0  0  0  0  0  0  0  0  0
   -2.9499   -4.2246    0.0000 N   0  0  0  0  0  0  0  0  0  0  0  0
   -2.1470   -1.7537    0.0000 N   0  0  0  0  0  0  0  0  0  0  0  0
   -1.0323   -0.7500    0.0000 C   0  0  0  0  0  0  0  0  0  0  0  0
   -1.0323    0.7500    0.0000 N   0  0  0  0  0  0  0  0  0  0  0  0
    2.7886    4.3786    0.0000 C   0  0  0  0  0  0  0  0  0  0  0  0
  1  2  1  0
  2  3  1  0
  3  4  2  0
  4  5  1  0
  5  6  2  0
  6  7  1  0
  7  8  1  0
  6  9  1  0
  9 10  1  0
 10 11  1  0
 11 12  2  0
 12 13  1  0
 13 14  2  0
 14 15  1  0
 15 16  1  0
 16 17  2  0
 17 18  1  0
 18 19  2  0
 19 20  1  0
 19 21  1  0
 21 22  2  0
 14 23  1  0
 23 24  2  0
 24 25  1  0
 24 26  1  0
 26 27  2  0
 27 28  1  0
  9 29  2  0
 29  3  1  0
 28 11  1  0
 27 13  1  0
 22 16  1  0
M  END
>  <Molecule ChEMBL ID>  (39) 
CHEMBL1929557

>  <Smiles>  (39) 
COc1ccc(OC)c(Cc2cc3c(Nc4ccc(Cl)cc4)nc(N)nc3[nH]2)c1

>  <pChEMBL Value>  (39) 
4.82

>  <similarity>  (39) 
0.12941176470588237

$$$$

     RDKit          2D

 23 25  0  0  0  0  0  0  0  0999 V2000
    3.0000   -5.1962    0.0000 C   0  0  0  0  0  0  0  0  0  0  0  0
    1.5000   -5.1962    0.0000 O   0  0  0  0  0  0  0  0  0  0  0  0
    0.7500   -3.8971    0.0000 C   0  0  0  0  0  0  0  0  0  0  0  0
    1.5000   -2.5981    0.0000 C   0  0  0  0  0  0  0  0  0  0  0  0
    0.7500   -1.2990    0.0000 C   0  0  0  0  0  0  0  0  0  0  0  0
    1.5000    0.0000    0.0000 N   0  0  0  0  0  0  0  0  0  0  0  0
    0.7500    1.2990    0.0000 C   0  0  0  0  0  0  0  0  0  0  0  0
   -0.7500    1.2990    0.0000 N   0  0  0  0  0  0  0  0  0  0  0  0
   -1.5000    0.0000    0.0000 C   0  0  0  0  0  0  0  0  0  0  0  0
   -3.0000    0.0000    0.0000 N   0  0  0  0  0  0  0  0  0  0  0  0
   -3.7500    1.2990    0.0000 C   0  0  0  0  0  0  0  0  0  0  0  0
   -3.0000    2.5981    0.0000 C   0  0  0  0  0  0  0  0  0  0  0  0
   -3.7500    3.8971    0.0000 C   0  0  0  0  0  0  0  0  0  0  0  0
   -5.2500    3.8971    0.0000 C   0  0  0  0  0  0  0  0  0  0  0  0
   -6.0000    5.1962    0.0000 Cl  0  0  0  0  0  0  0  0  0  0  0  0
   -6.0000    2.5981    0.0000 C   0  0  0  0  0  0  0  0  0  0  0  0
   -5.2500    1.2990    0.0000 C   0  0  0  0  0  0  0  0  0  0  0  0
   -6.0000    0.0000    0.0000 F   0  0  0  0  0  0  0  0  0  0  0  0
   -0.7500   -1.2990    0.0000 C   0  0  0  0  0  0  0  0  0  0  0  0
   -1.5000   -2.5981    0.0000 C   0  0  0  0  0  0  0  0  0  0  0  0
   -0.7500   -3.8971    0.0000 C   0  0  0  0  0  0  0  0  0  0  0  0
   -1.5000   -5.1962    0.0000 O   0  0  0  0  0  0  0  0  0  0  0  0
   -3.0000   -5.1962    0.0000 C   0  0  0  0  0  0  0  0  0  0  0  0
  1  2  1  0
  2  3  1  0
  3  4  2  0
  4  5  1  0
  5  6  2  0
  6  7  1  0
  7  8  2  0
  8  9  1  0
  9 10  1  0
 10 11  1  0
 11 12  2  0
 12 13  1  0
 13 14  2  0
 14 15  1  0
 14 16  1  0
 16 17  2  0
 17 18  1  0
  9 19  2  0
 19 20  1  0
 20 21  2  0
 21 22  1  0
 22 23  1  0
 21  3  1  0
 19  5  1  0
 17 11  1  0
M  END
>  <Molecule ChEMBL ID>  (40) 
CHEMBL150315

>  <Smiles>  (40) 
COc1cc2ncnc(Nc3ccc(Cl)cc3F)c2cc1OC

>  <pChEMBL Value>  (40) 
4.75

>  <similarity>  (40) 
0.1038961038961039

$$$$

     RDKit          2D

 29 33  0  0  0  0  0  0  0  0999 V2000
   -5.5537  -10.0211    0.0000 N   0  0  0  0  0  0  0  0  0  0  0  0
   -5.5537   -8.5211    0.0000 C   0  0  0  0  0  0  0  0  0  0  0  0
   -6.8527   -7.7711    0.0000 N   0  0  0  0  0  0  0  0  0  0  0  0
   -6.8527   -6.2711    0.0000 C   0  0  0  0  0  0  0  0  0  0  0  0
   -8.1517   -5.5211    0.0000 N   0  0  0  0  0  0  0  0  0  0  0  0
   -9.4508   -6.2711    0.0000 C   0  0  0  0  0  0  0  0  0  0  0  0
  -10.7498   -5.5211    0.0000 C   0  0  0  0  0  0  0  0  0  0  0  0
  -12.0488   -6.2711    0.0000 C   0  0  0  0  0  0  0  0  0  0  0  0
  -12.0488   -7.7711    0.0000 C   0  0  0  0  0  0  0  0  0  0  0  0
  -13.3479   -8.5211    0.0000 Cl  0  0  0  0  0  0  0  0  0  0  0  0
  -10.7498   -8.5211    0.0000 C   0  0  0  0  0  0  0  0  0  0  0  0
   -9.4508   -7.7711    0.0000 C   0  0  0  0  0  0  0  0  0  0  0  0
   -5.5537   -5.5211    0.0000 C   0  0  0  0  0  0  0  0  0  0  0  0
   -5.2418   -4.0539    0.0000 C   0  0  0  0  0  0  0  0  0  0  0  0
   -3.7500   -3.8971    0.0000 C   0  0  0  0  0  0  0  0  0  0  0  0
   -3.0000   -2.5981    0.0000 C   0  0  0  0  0  0  0  0  0  0  0  0
   -1.5000   -2.5981    0.0000 C   0  0  0  0  0  0  0  0  0  0  0  0
   -0.7500   -3.8971    0.0000 C   0  0  0  0  0  0  0  0  0  0  0  0
    0.7500   -3.8971    0.0000 C   0  0  0  0  0  0  0  0  0  0  0  0
    1.5000   -2.5981    0.0000 C   0  0  0  0  0  0  0  0  0  0  0  0
    0.7500   -1.2990    0.0000 C   0  0  0  0  0  0  0  0  0  0  0  0
    1.5000    0.0000    0.0000 C   0  0  0  0  0  0  0  0  0  0  0  0
    0.7500    1.2990    0.0000 C   0  0  0  0  0  0  0  0  0  0  0  0
   -0.7500    1.2990    0.0000 C   0  0  0  0  0  0  0  0  0  0  0  0
   -1.5000    0.0000    0.0000 C   0  0  0  0  0  0  0  0  0  0  0  0
   -0.7500   -1.2990    0.0000 C   0  0  0  0  0  0  0  0  0  0  0  0
   -3.1399   -5.2674    0.0000 N   0  0  0  0  0  0  0  0  0  0  0  0
   -4.2546   -6.2711    0.0000 C   0  0  0  0  0  0  0  0  0  0  0  0
   -4.2546   -7.7711    0.0000 N   0  0  0  0  0  0  0  0  0  0  0  0
  1  2  1  0
  2  3  2  0
  3  4  1  0
  4  5  1  0
  5  6  1  0
  6  7  2  0
  7  8  1  0
  8  9  2  0
  9 10  1  0
  9 11  1  0
 11 12  2  0
  4 13  2  0
 13 14  1  0
 14 15  2  0
 15 16  1  0
 16 17  1  0
 17 18  2  0
 18 19  1  0
 19 20  2  0
 20 21  1  0
 21 22  2  0
 22 23  1  0
 23 24  2  0
 24 25  1  0
 25 26  2  0
 15 27  1  0
 27 28  1  0
 28 29  2  0
 29  2  1  0
 12  6  1  0
 28 13  1  0
 26 17  1  0
 26 21  1  0
M  END
>  <Molecule ChEMBL ID>  (41) 
CHEMBL1929555

>  <Smiles>  (41) 
Nc1nc(Nc2ccc(Cl)cc2)c2cc(Cc3cccc4ccccc34)[nH]c2n1

>  <pChEMBL Value>  (41) 
4.51

>  <similarity>  (41) 
0.1518987341772152

$$$$

     RDKit          2D

 71 73  0  0  0  0  0  0  0  0999 V2000
    9.9722   -1.2990    0.0000 C   0  0  0  0  0  0  0  0  0  0  0  0
    8.4722   -1.2990    0.0000 C   0  0  0  0  0  0  0  0  0  0  0  0
    7.7222   -2.5981    0.0000 C   0  0  0  0  0  0  0  0  0  0  0  0
    7.7222    0.0000    0.0000 C   0  0  0  0  0  0  0  0  0  0  0  0
    6.2222    0.0000    0.0000 C   0  0  0  0  0  0  0  0  0  0  0  0
    6.0414   -1.4891    0.0000 N   0  0  0  0  0  0  0  0  0  0  0  0
    5.5095   -2.8916    0.0000 C   0  0  0  0  0  0  0  0  0  0  0  0
    6.8376   -3.5887    0.0000 O   0  0  0  0  0  0  0  0  0  0  0  0
    4.6574   -4.1261    0.0000 C   0  0  0  0  0  0  0  0  0  0  0  0
    3.5346   -5.1207    0.0000 N   0  0  0  0  0  0  0  0  0  0  0  0
    2.2064   -5.8178    0.0000 C   0  0  0  0  0  0  0  0  0  0  0  0
    2.7383   -7.2204    0.0000 O   0  0  0  0  0  0  0  0  0  0  0  0
    0.7500   -6.1768    0.0000 C   0  0  0  0  0  0  0  0  0  0  0  0
    0.9308   -7.6659    0.0000 C   0  0  0  0  0  0  0  0  0  0  0  0
   -0.2684   -8.5670    0.0000 C   0  0  0  0  0  0  0  0  0  0  0  0
   -0.0876  -10.0560    0.0000 C   0  0  0  0  0  0  0  0  0  0  0  0
    1.2924  -10.6440    0.0000 O   0  0  0  0  0  0  0  0  0  0  0  0
   -1.2867  -10.9572    0.0000 O   0  0  0  0  0  0  0  0  0  0  0  0
   -0.7500   -6.1768    0.0000 N   0  0  0  0  0  0  0  0  0  0  0  0
   -2.2064   -5.8178    0.0000 C   0  0  0  0  0  0  0  0  0  0  0  0
   -2.7383   -7.2204    0.0000 O   0  0  0  0  0  0  0  0  0  0  0  0
   -3.5346   -5.1207    0.0000 C   0  0  0  0  0  0  0  0  0  0  0  0
   -4.3867   -6.3552    0.0000 C   0  0  0  0  0  0  0  0  0  0  0  0
   -5.8818   -6.2345    0.0000 C   0  0  0  0  0  0  0  0  0  0  0  0
   -6.5249   -4.8793    0.0000 O   0  0  0  0  0  0  0  0  0  0  0  0
   -6.7339   -7.4690    0.0000 O   0  0  0  0  0  0  0  0  0  0  0  0
   -4.6574   -4.1261    0.0000 N   0  0  0  0  0  0  0  0  0  0  0  0
   -5.5095   -2.8916    0.0000 C   0  0  0  0  0  0  0  0  0  0  0  0
   -6.8376   -3.5887    0.0000 O   0  0  0  0  0  0  0  0  0  0  0  0
   -6.0414   -1.4891    0.0000 C   0  0  0  0  0  0  0  0  0  0  0  0
   -7.4978   -1.8480    0.0000 C   0  0  0  0  0  0  0  0  0  0  0  0
   -8.5369   -0.7662    0.0000 C   0  0  0  0  0  0  0  0  0  0  0  0
   -8.1195    0.6745    0.0000 C   0  0  0  0  0  0  0  0  0  0  0  0
   -9.1586    1.7563    0.0000 C   0  0  0  0  0  0  0  0  0  0  0  0
  -10.6150    1.3974    0.0000 C   0  0  0  0  0  0  0  0  0  0  0  0
  -11.6541    2.4792    0.0000 O   0  0  0  0  0  0  0  0  0  0  0  0
  -11.0324   -0.0434    0.0000 C   0  0  0  0  0  0  0  0  0  0  0  0
   -9.9933   -1.1252    0.0000 C   0  0  0  0  0  0  0  0  0  0  0  0
   -6.2222    0.0000    0.0000 N   0  0  0  0  0  0  0  0  0  0  0  0
   -6.0414    1.4891    0.0000 C   0  0  0  0  0  0  0  0  0  0  0  0
   -7.4978    1.8480    0.0000 O   0  0  0  0  0  0  0  0  0  0  0  0
   -5.5095    2.8916    0.0000 C   0  0  0  0  0  0  0  0  0  0  0  0
   -6.8376    3.5887    0.0000 C   0  0  0  0  0  0  0  0  0  0  0  0
   -6.8980    5.0875    0.0000 C   0  0  0  0  0  0  0  0  0  0  0  0
   -5.6303    5.8892    0.0000 C   0  0  0  0  0  0  0  0  0  0  0  0
   -5.6907    7.3879    0.0000 C   0  0  0  0  0  0  0  0  0  0  0  0
   -7.0188    8.0850    0.0000 C   0  0  0  0  0  0  0  0  0  0  0  0
   -7.0792    9.5838    0.0000 O   0  0  0  0  0  0  0  0  0  0  0  0
   -8.2866    7.2833    0.0000 C   0  0  0  0  0  0  0  0  0  0  0  0
   -8.2262    5.7845    0.0000 C   0  0  0  0  0  0  0  0  0  0  0  0
   -4.6574    4.1261    0.0000 N   0  0  0  0  0  0  0  0  0  0  0  0
   -3.5346    5.1207    0.0000 C   0  0  0  0  0  0  0  0  0  0  0  0
   -4.3867    6.3552    0.0000 O   0  0  0  0  0  0  0  0  0  0  0  0
   -2.2064    5.8178    0.0000 C   0  0  0  0  0  0  0  0  0  0  0  0
   -0.7500    6.1768    0.0000 C   0  0  0  0  0  0  0  0  0  0  0  0
    0.7500    6.1768    0.0000 C   0  0  0  0  0  0  0  0  0  0  0  0
    0.9308    7.6659    0.0000 C   0  0  0  0  0  0  0  0  0  0  0  0
    2.3108    8.2538    0.0000 N   0  0  0  0  0  0  0  0  0  0  0  0
   -0.2684    8.5670    0.0000 O   0  0  0  0  0  0  0  0  0  0  0  0
    2.2064    5.8178    0.0000 N   0  0  0  0  0  0  0  0  0  0  0  0
    3.5346    5.1207    0.0000 C   0  0  0  0  0  0  0  0  0  0  0  0
    4.3867    6.3552    0.0000 O   0  0  0  0  0  0  0  0  0  0  0  0
    4.6574    4.1261    0.0000 C   0  0  0  0  0  0  0  0  0  0  0  0
    5.7801    5.1207    0.0000 C   0  0  0  0  0  0  0  0  0  0  0  0
    7.2029    4.6457    0.0000 C   0  0  0  0  0  0  0  0  0  0  0  0
    8.3257    5.6404    0.0000 C   0  0  0  0  0  0  0  0  0  0  0  0
    8.0257    7.1101    0.0000 O   0  0  0  0  0  0  0  0  0  0  0  0
    9.7485    5.1654    0.0000 O   0  0  0  0  0  0  0  0  0  0  0  0
    5.5095    2.8916    0.0000 N   0  0  0  0  0  0  0  0  0  0  0  0
    6.0414    1.4891    0.0000 C   0  0  0  0  0  0  0  0  0  0  0  0
    7.4978    1.8480    0.0000 O   0  0  0  0  0  0  0  0  0  0  0  0
  1  2  1  0
  2  3  1  0
  2  4  1  0
  5  4  1  6
  5  6  1  0
  6  7  1  0
  7  8  2  0
  7  9  1  0
  9 10  1  0
 10 11  1  0
 11 12  2  0
 11 13  1  0
 13 14  1  6
 14 15  1  0
 15 16  1  0
 16 17  2  0
 16 18  1  0
 13 19  1  0
 19 20  1  0
 20 21  2  0
 20 22  1  0
 22 23  1  6
 23 24  1  0
 24 25  2  0
 24 26  1  0
 22 27  1  0
 27 28  1  0
 28 29  2  0
 28 30  1  0
 30 31  1  6
 31 32  1  0
 32 33  2  0
 33 34  1  0
 34 35  2  0
 35 36  1  0
 35 37  1  0
 37 38  2  0
 30 39  1  0
 39 40  1  0
 40 41  2  0
 40 42  1  0
 42 43  1  6
 43 44  1  0
 44 45  2  0
 45 46  1  0
 46 47  2  0
 47 48  1  0
 47 49  1  0
 49 50  2  0
 42 51  1  0
 51 52  1  0
 52 53  2  0
 52 54  1  0
 54 55  1  0
 55 56  1  0
 56 57  1  1
 57 58  1  0
 57 59  2  0
 56 60  1  0
 60 61  1  0
 61 62  2  0
 61 63  1  0
 63 64  1  6
 64 65  1  0
 65 66  1  0
 66 67  2  0
 66 68  1  0
 63 69  1  0
 69 70  1  0
 70 71  2  0
 70  5  1  0
 38 32  1  0
 50 44  1  0
M  END
>  <Molecule ChEMBL ID>  (42) 
CHEMBL389147

>  <Smiles>  (42) 
CC(C)C[C@@H]1NC(=O)CNC(=O)[C@H](CCC(=O)O)NC(=O)[C@H](CC(=O)O)NC(=O)[C@H](Cc2ccc(O)cc2)NC(=O)[C@H](Cc2ccc(O)cc2)NC(=O)CC[C@@H](C(N)=O)NC(=O)[C@H](CCC(=O)O)NC1=O

>  <pChEMBL Value>  (42) 
4.5

>  <similarity>  (42) 
0.10101010101010101

$$$$

     RDKit          2D

 86 87  0  0  0  0  0  0  0  0999 V2000
   -4.2373   12.1816    0.0000 C   0  0  0  0  0  0  0  0  0  0  0  0
   -3.2336   11.0669    0.0000 C   0  0  0  0  0  0  0  0  0  0  0  0
   -1.7664   11.3787    0.0000 C   0  0  0  0  0  0  0  0  0  0  0  0
   -0.7627   10.2640    0.0000 C   0  0  0  0  0  0  0  0  0  0  0  0
    0.7045   10.5759    0.0000 N   0  0  0  0  0  0  0  0  0  0  0  0
    1.7082    9.4612    0.0000 C   0  0  0  0  0  0  0  0  0  0  0  0
    1.2447    8.0346    0.0000 O   0  0  0  0  0  0  0  0  0  0  0  0
    3.1755    9.7730    0.0000 C   0  0  0  0  0  0  0  0  0  0  0  0
    3.6390   11.1996    0.0000 C   0  0  0  0  0  0  0  0  0  0  0  0
    2.6353   12.3143    0.0000 C   0  0  0  0  0  0  0  0  0  0  0  0
    3.0988   13.7409    0.0000 C   0  0  0  0  0  0  0  0  0  0  0  0
    2.0951   14.8556    0.0000 N   0  0  0  0  0  0  0  0  0  0  0  0
    4.5660   14.0528    0.0000 O   0  0  0  0  0  0  0  0  0  0  0  0
    4.1791    8.6583    0.0000 N   0  0  0  0  0  0  0  0  0  0  0  0
    3.7156    7.2317    0.0000 C   0  0  0  0  0  0  0  0  0  0  0  0
    2.2484    6.9199    0.0000 O   0  0  0  0  0  0  0  0  0  0  0  0
    4.7193    6.1170    0.0000 C   0  0  0  0  0  0  0  0  0  0  0  0
    6.1865    6.4289    0.0000 C   0  0  0  0  0  0  0  0  0  0  0  0
    6.6501    7.8555    0.0000 C   0  0  0  0  0  0  0  0  0  0  0  0
    8.1173    8.1673    0.0000 C   0  0  0  0  0  0  0  0  0  0  0  0
    8.5808    9.5939    0.0000 N   0  0  0  0  0  0  0  0  0  0  0  0
    9.1210    7.0526    0.0000 O   0  0  0  0  0  0  0  0  0  0  0  0
    4.2558    4.6904    0.0000 N   0  0  0  0  0  0  0  0  0  0  0  0
    2.7886    4.3786    0.0000 C   0  0  0  0  0  0  0  0  0  0  0  0
    1.7849    5.4933    0.0000 O   0  0  0  0  0  0  0  0  0  0  0  0
    2.3250    2.9520    0.0000 C   0  0  0  0  0  0  0  0  0  0  0  0
    0.8578    2.6401    0.0000 C   0  0  0  0  0  0  0  0  0  0  0  0
    0.3943    1.2135    0.0000 C   0  0  0  0  0  0  0  0  0  0  0  0
    1.2760    0.0000    0.0000 C   0  0  0  0  0  0  0  0  0  0  0  0
    0.3943   -1.2135    0.0000 N   0  0  0  0  0  0  0  0  0  0  0  0
   -1.0323   -0.7500    0.0000 C   0  0  0  0  0  0  0  0  0  0  0  0
   -1.0323    0.7500    0.0000 N   0  0  0  0  0  0  0  0  0  0  0  0
    3.3287    1.8373    0.0000 N   0  0  0  0  0  0  0  0  0  0  0  0
    4.7960    2.1491    0.0000 C   0  0  0  0  0  0  0  0  0  0  0  0
    5.2595    3.5757    0.0000 O   0  0  0  0  0  0  0  0  0  0  0  0
    5.7997    1.0344    0.0000 C   0  0  0  0  0  0  0  0  0  0  0  0
    7.2914    1.1912    0.0000 C   0  0  0  0  0  0  0  0  0  0  0  0
    7.9015   -0.1791    0.0000 C   0  0  0  0  0  0  0  0  0  0  0  0
    6.7868   -1.1828    0.0000 C   0  0  0  0  0  0  0  0  0  0  0  0
    5.4878   -0.4328    0.0000 N   0  0  0  0  0  0  0  0  0  0  0  0
    4.1175   -1.0429    0.0000 C   0  0  0  0  0  0  0  0  0  0  0  0
    2.9039   -0.1612    0.0000 O   0  0  0  0  0  0  0  0  0  0  0  0
    3.9607   -2.5347    0.0000 C   0  0  0  0  0  0  0  0  0  0  0  0
    2.5904   -3.1448    0.0000 C   0  0  0  0  0  0  0  0  0  0  0  0
    2.4336   -4.6366    0.0000 C   0  0  0  0  0  0  0  0  0  0  0  0
    1.0633   -5.2467    0.0000 C   0  0  0  0  0  0  0  0  0  0  0  0
    0.9065   -6.7385    0.0000 C   0  0  0  0  0  0  0  0  0  0  0  0
   -0.4639   -7.3486    0.0000 N   0  0  0  0  0  0  0  0  0  0  0  0
    5.1742   -3.4164    0.0000 N   0  0  0  0  0  0  0  0  0  0  0  0
    5.0174   -4.9082    0.0000 C   0  0  0  0  0  0  0  0  0  0  0  0
    3.6471   -5.5183    0.0000 O   0  0  0  0  0  0  0  0  0  0  0  0
    6.2309   -5.7898    0.0000 C   0  0  0  0  0  0  0  0  0  0  0  0
    7.6013   -5.1797    0.0000 N   0  0  0  0  0  0  0  0  0  0  0  0
    8.8148   -6.0614    0.0000 C   0  0  0  0  0  0  0  0  0  0  0  0
    8.6580   -7.5532    0.0000 O   0  0  0  0  0  0  0  0  0  0  0  0
   10.1851   -5.4513    0.0000 C   0  0  0  0  0  0  0  0  0  0  0  0
   11.3986   -6.3330    0.0000 C   0  0  0  0  0  0  0  0  0  0  0  0
   12.7689   -5.7229    0.0000 C   0  0  0  0  0  0  0  0  0  0  0  0
   13.9825   -6.6046    0.0000 C   0  0  0  0  0  0  0  0  0  0  0  0
   10.3419   -3.9595    0.0000 N   0  0  0  0  0  0  0  0  0  0  0  0
   11.7122   -3.3494    0.0000 C   0  0  0  0  0  0  0  0  0  0  0  0
   12.9257   -4.2311    0.0000 O   0  0  0  0  0  0  0  0  0  0  0  0
   11.8690   -1.8576    0.0000 C   0  0  0  0  0  0  0  0  0  0  0  0
   13.2393   -1.2475    0.0000 C   0  0  0  0  0  0  0  0  0  0  0  0
   13.3961    0.2443    0.0000 C   0  0  0  0  0  0  0  0  0  0  0  0
   14.7664    0.8544    0.0000 S   0  0  0  0  0  0  0  0  0  0  0  0
   14.9232    2.3461    0.0000 C   0  0  0  0  0  0  0  0  0  0  0  0
   10.6555   -0.9760    0.0000 N   0  0  0  0  0  0  0  0  0  0  0  0
   10.8123    0.5158    0.0000 C   0  0  0  0  0  0  0  0  0  0  0  0
    9.5987    1.3975    0.0000 C   0  0  0  0  0  0  0  0  0  0  0  0
   12.1826    1.1259    0.0000 O   0  0  0  0  0  0  0  0  0  0  0  0
    6.0741   -7.2816    0.0000 C   0  0  0  0  0  0  0  0  0  0  0  0
    7.2877   -8.1633    0.0000 C   0  0  0  0  0  0  0  0  0  0  0  0
    4.7038   -7.8917    0.0000 C   0  0  0  0  0  0  0  0  0  0  0  0
    4.5470   -9.3835    0.0000 C   0  0  0  0  0  0  0  0  0  0  0  0
   -1.2262    8.8374    0.0000 C   0  0  0  0  0  0  0  0  0  0  0  0
   -0.2225    7.7227    0.0000 O   0  0  0  0  0  0  0  0  0  0  0  0
   -2.6934    8.5256    0.0000 N   0  0  0  0  0  0  0  0  0  0  0  0
   -3.1570    7.0990    0.0000 C   0  0  0  0  0  0  0  0  0  0  0  0
   -2.1533    5.9843    0.0000 C   0  0  0  0  0  0  0  0  0  0  0  0
   -2.6168    4.5577    0.0000 N   0  0  0  0  0  0  0  0  0  0  0  0
   -0.6860    6.2961    0.0000 O   0  0  0  0  0  0  0  0  0  0  0  0
   -4.6242    6.7871    0.0000 C   0  0  0  0  0  0  0  0  0  0  0  0
   -5.0877    5.3605    0.0000 C   0  0  0  0  0  0  0  0  0  0  0  0
   -5.6279    7.9018    0.0000 C   0  0  0  0  0  0  0  0  0  0  0  0
   -7.0951    7.5900    0.0000 C   0  0  0  0  0  0  0  0  0  0  0  0
  1  2  2  0
  2  3  1  0
  4  3  1  6
  4  5  1  0
  5  6  1  0
  6  7  2  0
  6  8  1  0
  8  9  1  6
  9 10  1  0
 10 11  1  0
 11 12  1  0
 11 13  2  0
  8 14  1  0
 14 15  1  0
 15 16  2  0
 15 17  1  0
 17 18  1  6
 18 19  1  0
 19 20  1  0
 20 21  1  0
 20 22  2  0
 17 23  1  0
 23 24  1  0
 24 25  2  0
 24 26  1  0
 26 27  1  1
 27 28  1  0
 28 29  2  0
 29 30  1  0
 30 31  2  0
 31 32  1  0
 26 33  1  0
 33 34  1  0
 34 35  2  0
 36 34  1  6
 36 37  1  0
 37 38  1  0
 38 39  1  0
 39 40  1  0
 40 41  1  0
 41 42  2  0
 41 43  1  0
 43 44  1  1
 44 45  1  0
 45 46  1  0
 46 47  1  0
 47 48  1  0
 43 49  1  0
 49 50  1  0
 50 51  2  0
 50 52  1  0
 52 53  1  1
 53 54  1  0
 54 55  2  0
 54 56  1  0
 56 57  1  1
 57 58  1  0
 58 59  2  0
 56 60  1  0
 60 61  1  0
 61 62  2  0
 61 63  1  0
 63 64  1  1
 64 65  1  0
 65 66  1  0
 66 67  1  0
 63 68  1  0
 68 69  1  0
 69 70  1  0
 69 71  2  0
 52 72  1  0
 72 73  1  1
 72 74  1  0
 74 75  1  0
  4 76  1  0
 76 77  2  0
 76 78  1  0
 79 78  1  6
 79 80  1  0
 80 81  1  0
 80 82  2  0
 79 83  1  0
 83 84  1  1
 83 85  1  0
 85 86  1  0
 32 28  1  0
 40 36  1  0
M  END
>  <Molecule ChEMBL ID>  (43) 
CHEMBL1684373

>  <Smiles>  (43) 
C=CC[C@H](NC(=O)[C@H](CCC(N)=O)NC(=O)[C@H](CCC(N)=O)NC(=O)[C@H](Cc1cnc[nH]1)NC(=O)[C@@H]1CCCN1C(=O)[C@H](CCCCN)NC(=O)[C@@H](NC(=O)[C@H](CC=C)NC(=O)[C@H](CCSC)NC(C)=O)[C@@H](C)CC)C(=O)N[C@H](C(N)=O)[C@@H](C)CC

>  <pChEMBL Value>  (43) 
4.37

>  <similarity>  (43) 
0.061068702290076333

$$$$

     RDKit          2D

 81 82  0  0  0  0  0  0  0  0999 V2000
   15.5300    5.7588    0.0000 C   0  0  0  0  0  0  0  0  0  0  0  0
   14.0628    5.4469    0.0000 C   0  0  0  0  0  0  0  0  0  0  0  0
   13.0591    6.5616    0.0000 C   0  0  0  0  0  0  0  0  0  0  0  0
   11.5919    6.2498    0.0000 C   0  0  0  0  0  0  0  0  0  0  0  0
   10.5882    7.3645    0.0000 N   0  0  0  0  0  0  0  0  0  0  0  0
    9.1210    7.0526    0.0000 C   0  0  0  0  0  0  0  0  0  0  0  0
    8.6575    5.6260    0.0000 O   0  0  0  0  0  0  0  0  0  0  0  0
    8.1173    8.1673    0.0000 C   0  0  0  0  0  0  0  0  0  0  0  0
    8.5808    9.5939    0.0000 C   0  0  0  0  0  0  0  0  0  0  0  0
   10.0480    9.9058    0.0000 C   0  0  0  0  0  0  0  0  0  0  0  0
   10.5116   11.3324    0.0000 C   0  0  0  0  0  0  0  0  0  0  0  0
   11.9788   11.6442    0.0000 N   0  0  0  0  0  0  0  0  0  0  0  0
    9.5079   12.4471    0.0000 O   0  0  0  0  0  0  0  0  0  0  0  0
    6.6501    7.8555    0.0000 N   0  0  0  0  0  0  0  0  0  0  0  0
    6.1865    6.4289    0.0000 C   0  0  0  0  0  0  0  0  0  0  0  0
    7.1902    5.3142    0.0000 O   0  0  0  0  0  0  0  0  0  0  0  0
    4.7193    6.1170    0.0000 C   0  0  0  0  0  0  0  0  0  0  0  0
    4.2558    4.6904    0.0000 N   0  0  0  0  0  0  0  0  0  0  0  0
    2.7886    4.3786    0.0000 C   0  0  0  0  0  0  0  0  0  0  0  0
    1.7849    5.4933    0.0000 O   0  0  0  0  0  0  0  0  0  0  0  0
    2.3250    2.9520    0.0000 C   0  0  0  0  0  0  0  0  0  0  0  0
    0.8578    2.6401    0.0000 C   0  0  0  0  0  0  0  0  0  0  0  0
    0.3943    1.2135    0.0000 C   0  0  0  0  0  0  0  0  0  0  0  0
    1.2760    0.0000    0.0000 C   0  0  0  0  0  0  0  0  0  0  0  0
    0.3943   -1.2135    0.0000 N   0  0  0  0  0  0  0  0  0  0  0  0
   -1.0323   -0.7500    0.0000 C   0  0  0  0  0  0  0  0  0  0  0  0
   -1.0323    0.7500    0.0000 N   0  0  0  0  0  0  0  0  0  0  0  0
    3.3287    1.8373    0.0000 N   0  0  0  0  0  0  0  0  0  0  0  0
    4.7960    2.1491    0.0000 C   0  0  0  0  0  0  0  0  0  0  0  0
    5.2595    3.5757    0.0000 O   0  0  0  0  0  0  0  0  0  0  0  0
    5.7997    1.0344    0.0000 C   0  0  0  0  0  0  0  0  0  0  0  0
    7.2914    1.1912    0.0000 C   0  0  0  0  0  0  0  0  0  0  0  0
    7.9015   -0.1791    0.0000 C   0  0  0  0  0  0  0  0  0  0  0  0
    6.7868   -1.1828    0.0000 C   0  0  0  0  0  0  0  0  0  0  0  0
    5.4878   -0.4328    0.0000 N   0  0  0  0  0  0  0  0  0  0  0  0
    4.1175   -1.0429    0.0000 C   0  0  0  0  0  0  0  0  0  0  0  0
    2.9039   -0.1612    0.0000 O   0  0  0  0  0  0  0  0  0  0  0  0
    3.9607   -2.5347    0.0000 C   0  0  0  0  0  0  0  0  0  0  0  0
    2.5904   -3.1448    0.0000 C   0  0  0  0  0  0  0  0  0  0  0  0
    2.4336   -4.6366    0.0000 C   0  0  0  0  0  0  0  0  0  0  0  0
    1.0633   -5.2467    0.0000 C   0  0  0  0  0  0  0  0  0  0  0  0
    0.9065   -6.7385    0.0000 C   0  0  0  0  0  0  0  0  0  0  0  0
   -0.4639   -7.3486    0.0000 N   0  0  0  0  0  0  0  0  0  0  0  0
    5.1742   -3.4164    0.0000 N   0  0  0  0  0  0  0  0  0  0  0  0
    5.0174   -4.9082    0.0000 C   0  0  0  0  0  0  0  0  0  0  0  0
    3.6471   -5.5183    0.0000 O   0  0  0  0  0  0  0  0  0  0  0  0
    6.2309   -5.7898    0.0000 C   0  0  0  0  0  0  0  0  0  0  0  0
    7.6013   -5.1797    0.0000 N   0  0  0  0  0  0  0  0  0  0  0  0
    8.8148   -6.0614    0.0000 C   0  0  0  0  0  0  0  0  0  0  0  0
    8.6580   -7.5532    0.0000 O   0  0  0  0  0  0  0  0  0  0  0  0
   10.1851   -5.4513    0.0000 C   0  0  0  0  0  0  0  0  0  0  0  0
   10.3419   -3.9595    0.0000 C   0  0  0  0  0  0  0  0  0  0  0  0
   11.7122   -3.3494    0.0000 C   0  0  0  0  0  0  0  0  0  0  0  0
   11.8690   -1.8576    0.0000 C   0  0  0  0  0  0  0  0  0  0  0  0
   11.3986   -6.3330    0.0000 N   0  0  0  0  0  0  0  0  0  0  0  0
   12.7689   -5.7229    0.0000 C   0  0  0  0  0  0  0  0  0  0  0  0
   12.9257   -4.2311    0.0000 O   0  0  0  0  0  0  0  0  0  0  0  0
   13.9825   -6.6046    0.0000 C   0  0  0  0  0  0  0  0  0  0  0  0
   15.3528   -5.9945    0.0000 C   0  0  0  0  0  0  0  0  0  0  0  0
   16.5663   -6.8761    0.0000 C   0  0  0  0  0  0  0  0  0  0  0  0
   17.9366   -6.2660    0.0000 S   0  0  0  0  0  0  0  0  0  0  0  0
   19.1502   -7.1477    0.0000 C   0  0  0  0  0  0  0  0  0  0  0  0
   13.8257   -8.0963    0.0000 N   0  0  0  0  0  0  0  0  0  0  0  0
   12.4554   -8.7064    0.0000 C   0  0  0  0  0  0  0  0  0  0  0  0
   11.2418   -7.8248    0.0000 C   0  0  0  0  0  0  0  0  0  0  0  0
   12.2986  -10.1982    0.0000 O   0  0  0  0  0  0  0  0  0  0  0  0
    6.0741   -7.2816    0.0000 C   0  0  0  0  0  0  0  0  0  0  0  0
    7.2877   -8.1633    0.0000 C   0  0  0  0  0  0  0  0  0  0  0  0
    4.7038   -7.8917    0.0000 C   0  0  0  0  0  0  0  0  0  0  0  0
    4.5470   -9.3835    0.0000 C   0  0  0  0  0  0  0  0  0  0  0  0
   11.1284    4.8232    0.0000 C   0  0  0  0  0  0  0  0  0  0  0  0
    9.6612    4.5113    0.0000 O   0  0  0  0  0  0  0  0  0  0  0  0
   12.1321    3.7085    0.0000 N   0  0  0  0  0  0  0  0  0  0  0  0
   11.6685    2.2819    0.0000 C   0  0  0  0  0  0  0  0  0  0  0  0
   10.2013    1.9700    0.0000 C   0  0  0  0  0  0  0  0  0  0  0  0
    9.7378    0.5434    0.0000 N   0  0  0  0  0  0  0  0  0  0  0  0
    9.1976    3.0847    0.0000 O   0  0  0  0  0  0  0  0  0  0  0  0
   12.6722    1.1672    0.0000 C   0  0  0  0  0  0  0  0  0  0  0  0
   12.2087   -0.2594    0.0000 C   0  0  0  0  0  0  0  0  0  0  0  0
   14.1395    1.4790    0.0000 C   0  0  0  0  0  0  0  0  0  0  0  0
   15.1432    0.3643    0.0000 C   0  0  0  0  0  0  0  0  0  0  0  0
  1  2  2  0
  2  3  1  0
  4  3  1  1
  4  5  1  0
  5  6  1  0
  6  7  2  0
  6  8  1  0
  8  9  1  1
  9 10  1  0
 10 11  1  0
 11 12  1  0
 11 13  2  0
  8 14  1  0
 14 15  1  0
 15 16  2  0
 15 17  1  0
 17 18  1  0
 18 19  1  0
 19 20  2  0
 19 21  1  0
 21 22  1  1
 22 23  1  0
 23 24  2  0
 24 25  1  0
 25 26  2  0
 26 27  1  0
 21 28  1  0
 28 29  1  0
 29 30  2  0
 31 29  1  6
 31 32  1  0
 32 33  1  0
 33 34  1  0
 34 35  1  0
 35 36  1  0
 36 37  2  0
 36 38  1  0
 38 39  1  1
 39 40  1  0
 40 41  1  0
 41 42  1  0
 42 43  1  0
 38 44  1  0
 44 45  1  0
 45 46  2  0
 45 47  1  0
 47 48  1  1
 48 49  1  0
 49 50  2  0
 49 51  1  0
 51 52  1  6
 52 53  1  0
 53 54  2  0
 51 55  1  0
 55 56  1  0
 56 57  2  0
 56 58  1  0
 58 59  1  6
 59 60  1  0
 60 61  1  0
 61 62  1  0
 58 63  1  0
 63 64  1  0
 64 65  1  0
 64 66  2  0
 47 67  1  0
 67 68  1  1
 67 69  1  0
 69 70  1  0
  4 71  1  0
 71 72  2  0
 71 73  1  0
 74 73  1  1
 74 75  1  0
 75 76  1  0
 75 77  2  0
 74 78  1  0
 78 79  1  6
 78 80  1  0
 80 81  1  0
 27 23  1  0
 35 31  1  0
M  END
>  <Molecule ChEMBL ID>  (44) 
CHEMBL1684370

>  <Smiles>  (44) 
C=CC[C@H](NC(=O)[C@H](CCC(N)=O)NC(=O)CNC(=O)[C@H](Cc1cnc[nH]1)NC(=O)[C@@H]1CCCN1C(=O)[C@H](CCCCN)NC(=O)[C@@H](NC(=O)[C@H](CC=C)NC(=O)[C@H](CCSC)NC(C)=O)[C@@H](C)CC)C(=O)N[C@H](C(N)=O)[C@@H](C)CC

>  <pChEMBL Value>  (44) 
4.04

>  <similarity>  (44) 
0.06521739130434782

$$$$

     RDKit          2D

 21 23  0  0  0  0  0  0  0  0999 V2000
    1.8478   -6.4639    0.0000 C   0  0  0  0  0  0  0  0  0  0  0  0
    2.0046   -4.9721    0.0000 N   0  0  0  0  0  0  0  0  0  0  0  0
    3.3037   -4.2221    0.0000 C   0  0  0  0  0  0  0  0  0  0  0  0
    2.9918   -2.7549    0.0000 N   0  0  0  0  0  0  0  0  0  0  0  0
    1.5000   -2.5981    0.0000 C   0  0  0  0  0  0  0  0  0  0  0  0
    0.7500   -1.2990    0.0000 C   0  0  0  0  0  0  0  0  0  0  0  0
    1.5000    0.0000    0.0000 C   0  0  0  0  0  0  0  0  0  0  0  0
    0.7500    1.2990    0.0000 C   0  0  0  0  0  0  0  0  0  0  0  0
   -0.7500    1.2990    0.0000 C   0  0  0  0  0  0  0  0  0  0  0  0
   -1.5000    0.0000    0.0000 C   0  0  0  0  0  0  0  0  0  0  0  0
   -0.7500   -1.2990    0.0000 C   0  0  0  0  0  0  0  0  0  0  0  0
    0.8899   -3.9684    0.0000 C   0  0  0  0  0  0  0  0  0  0  0  0
   -0.5773   -4.2803    0.0000 C   0  0  0  0  0  0  0  0  0  0  0  0
   -2.0445   -4.5921    0.0000 C   0  0  0  0  0  0  0  0  0  0  0  0
   -3.5118   -4.9040    0.0000 C   0  0  0  0  0  0  0  0  0  0  0  0
   -4.5155   -3.7893    0.0000 C   0  0  0  0  0  0  0  0  0  0  0  0
   -5.9827   -4.1011    0.0000 C   0  0  0  0  0  0  0  0  0  0  0  0
   -6.4462   -5.5277    0.0000 N   0  0  0  0  0  0  0  0  0  0  0  0
   -5.4425   -6.6424    0.0000 C   0  0  0  0  0  0  0  0  0  0  0  0
   -5.9060   -8.0690    0.0000 N   0  0  0  0  0  0  0  0  0  0  0  0
   -3.9753   -6.3306    0.0000 N   0  0  0  0  0  0  0  0  0  0  0  0
  1  2  1  0
  2  3  1  0
  3  4  2  0
  4  5  1  0
  5  6  1  0
  6  7  2  0
  7  8  1  0
  8  9  2  0
  9 10  1  0
 10 11  2  0
  5 12  2  0
 12 13  1  0
 13 14  3  0
 14 15  1  0
 15 16  2  0
 16 17  1  0
 17 18  2  0
 18 19  1  0
 19 20  1  0
 19 21  2  0
 12  2  1  0
 21 15  1  0
 11  6  1  0
M  END
>  <Molecule ChEMBL ID>  (45) 
CHEMBL499864

>  <Smiles>  (45) 
Cn1cnc(-c2ccccc2)c1C#Cc1ccnc(N)n1

>  <pChEMBL Value>  (45) 
4.44

>  <similarity>  (45) 
0.07792207792207792

$$$$

     RDKit          2D

 68 70  0  0  0  0  0  0  0  0999 V2000
    9.9722   -1.2990    0.0000 C   0  0  0  0  0  0  0  0  0  0  0  0
    8.4722   -1.2990    0.0000 C   0  0  0  0  0  0  0  0  0  0  0  0
    7.7222   -2.5981    0.0000 C   0  0  0  0  0  0  0  0  0  0  0  0
    7.7222    0.0000    0.0000 C   0  0  0  0  0  0  0  0  0  0  0  0
    6.2222    0.0000    0.0000 C   0  0  0  0  0  0  0  0  0  0  0  0
    6.0414   -1.4891    0.0000 N   0  0  0  0  0  0  0  0  0  0  0  0
    5.5095   -2.8916    0.0000 C   0  0  0  0  0  0  0  0  0  0  0  0
    6.8376   -3.5887    0.0000 O   0  0  0  0  0  0  0  0  0  0  0  0
    4.6574   -4.1261    0.0000 C   0  0  0  0  0  0  0  0  0  0  0  0
    3.5346   -5.1207    0.0000 N   0  0  0  0  0  0  0  0  0  0  0  0
    2.2064   -5.8178    0.0000 C   0  0  0  0  0  0  0  0  0  0  0  0
    2.7383   -7.2204    0.0000 O   0  0  0  0  0  0  0  0  0  0  0  0
    0.7500   -6.1768    0.0000 C   0  0  0  0  0  0  0  0  0  0  0  0
    0.9308   -7.6659    0.0000 C   0  0  0  0  0  0  0  0  0  0  0  0
   -0.2684   -8.5670    0.0000 C   0  0  0  0  0  0  0  0  0  0  0  0
   -0.0876  -10.0560    0.0000 C   0  0  0  0  0  0  0  0  0  0  0  0
    1.2924  -10.6440    0.0000 O   0  0  0  0  0  0  0  0  0  0  0  0
   -1.2867  -10.9572    0.0000 O   0  0  0  0  0  0  0  0  0  0  0  0
   -0.7500   -6.1768    0.0000 N   0  0  0  0  0  0  0  0  0  0  0  0
   -2.2064   -5.8178    0.0000 C   0  0  0  0  0  0  0  0  0  0  0  0
   -2.7383   -7.2204    0.0000 O   0  0  0  0  0  0  0  0  0  0  0  0
   -3.5346   -5.1207    0.0000 C   0  0  0  0  0  0  0  0  0  0  0  0
   -4.3867   -6.3552    0.0000 C   0  0  0  0  0  0  0  0  0  0  0  0
   -4.6574   -4.1261    0.0000 N   0  0  0  0  0  0  0  0  0  0  0  0
   -5.5095   -2.8916    0.0000 C   0  0  0  0  0  0  0  0  0  0  0  0
   -6.8376   -3.5887    0.0000 O   0  0  0  0  0  0  0  0  0  0  0  0
   -6.0414   -1.4891    0.0000 C   0  0  0  0  0  0  0  0  0  0  0  0
   -7.4978   -1.8480    0.0000 C   0  0  0  0  0  0  0  0  0  0  0  0
   -8.5369   -0.7662    0.0000 C   0  0  0  0  0  0  0  0  0  0  0  0
   -8.1195    0.6745    0.0000 C   0  0  0  0  0  0  0  0  0  0  0  0
   -9.1586    1.7563    0.0000 C   0  0  0  0  0  0  0  0  0  0  0  0
  -10.6150    1.3974    0.0000 C   0  0  0  0  0  0  0  0  0  0  0  0
  -11.6541    2.4792    0.0000 O   0  0  0  0  0  0  0  0  0  0  0  0
  -11.0324   -0.0434    0.0000 C   0  0  0  0  0  0  0  0  0  0  0  0
   -9.9933   -1.1252    0.0000 C   0  0  0  0  0  0  0  0  0  0  0  0
   -6.2222    0.0000    0.0000 N   0  0  0  0  0  0  0  0  0  0  0  0
   -6.0414    1.4891    0.0000 C   0  0  0  0  0  0  0  0  0  0  0  0
   -7.4978    1.8480    0.0000 O   0  0  0  0  0  0  0  0  0  0  0  0
   -5.5095    2.8916    0.0000 C   0  0  0  0  0  0  0  0  0  0  0  0
   -6.8376    3.5887    0.0000 C   0  0  0  0  0  0  0  0  0  0  0  0
   -6.8980    5.0875    0.0000 C   0  0  0  0  0  0  0  0  0  0  0  0
   -5.6303    5.8892    0.0000 C   0  0  0  0  0  0  0  0  0  0  0  0
   -5.6907    7.3879    0.0000 C   0  0  0  0  0  0  0  0  0  0  0  0
   -7.0188    8.0850    0.0000 C   0  0  0  0  0  0  0  0  0  0  0  0
   -7.0792    9.5838    0.0000 O   0  0  0  0  0  0  0  0  0  0  0  0
   -8.2866    7.2833    0.0000 C   0  0  0  0  0  0  0  0  0  0  0  0
   -8.2262    5.7845    0.0000 C   0  0  0  0  0  0  0  0  0  0  0  0
   -4.6574    4.1261    0.0000 N   0  0  0  0  0  0  0  0  0  0  0  0
   -3.5346    5.1207    0.0000 C   0  0  0  0  0  0  0  0  0  0  0  0
   -4.3867    6.3552    0.0000 O   0  0  0  0  0  0  0  0  0  0  0  0
   -2.2064    5.8178    0.0000 C   0  0  0  0  0  0  0  0  0  0  0  0
   -0.7500    6.1768    0.0000 C   0  0  0  0  0  0  0  0  0  0  0  0
    0.7500    6.1768    0.0000 C   0  0  0  0  0  0  0  0  0  0  0  0
    0.9308    7.6659    0.0000 C   0  0  0  0  0  0  0  0  0  0  0  0
    2.3108    8.2538    0.0000 N   0  0  0  0  0  0  0  0  0  0  0  0
   -0.2684    8.5670    0.0000 O   0  0  0  0  0  0  0  0  0  0  0  0
    2.2064    5.8178    0.0000 N   0  0  0  0  0  0  0  0  0  0  0  0
    3.5346    5.1207    0.0000 C   0  0  0  0  0  0  0  0  0  0  0  0
    4.3867    6.3552    0.0000 O   0  0  0  0  0  0  0  0  0  0  0  0
    4.6574    4.1261    0.0000 C   0  0  0  0  0  0  0  0  0  0  0  0
    5.7801    5.1207    0.0000 C   0  0  0  0  0  0  0  0  0  0  0  0
    7.2029    4.6457    0.0000 C   0  0  0  0  0  0  0  0  0  0  0  0
    8.3257    5.6404    0.0000 C   0  0  0  0  0  0  0  0  0  0  0  0
    8.0257    7.1101    0.0000 O   0  0  0  0  0  0  0  0  0  0  0  0
    9.7485    5.1654    0.0000 O   0  0  0  0  0  0  0  0  0  0  0  0
    5.5095    2.8916    0.0000 N   0  0  0  0  0  0  0  0  0  0  0  0
    6.0414    1.4891    0.0000 C   0  0  0  0  0  0  0  0  0  0  0  0
    7.4978    1.8480    0.0000 O   0  0  0  0  0  0  0  0  0  0  0  0
  1  2  1  0
  2  3  1  0
  2  4  1  0
  5  4  1  6
  5  6  1  0
  6  7  1  0
  7  8  2  0
  7  9  1  0
  9 10  1  0
 10 11  1  0
 11 12  2  0
 11 13  1  0
 13 14  1  6
 14 15  1  0
 15 16  1  0
 16 17  2  0
 16 18  1  0
 13 19  1  0
 19 20  1  0
 20 21  2  0
 20 22  1  0
 22 23  1  6
 22 24  1  0
 24 25  1  0
 25 26  2  0
 25 27  1  0
 27 28  1  6
 28 29  1  0
 29 30  2  0
 30 31  1  0
 31 32  2  0
 32 33  1  0
 32 34  1  0
 34 35  2  0
 27 36  1  0
 36 37  1  0
 37 38  2  0
 37 39  1  0
 39 40  1  6
 40 41  1  0
 41 42  2  0
 42 43  1  0
 43 44  2  0
 44 45  1  0
 44 46  1  0
 46 47  2  0
 39 48  1  0
 48 49  1  0
 49 50  2  0
 49 51  1  0
 51 52  1  0
 52 53  1  0
 53 54  1  1
 54 55  1  0
 54 56  2  0
 53 57  1  0
 57 58  1  0
 58 59  2  0
 58 60  1  0
 60 61  1  6
 61 62  1  0
 62 63  1  0
 63 64  2  0
 63 65  1  0
 60 66  1  0
 66 67  1  0
 67 68  2  0
 67  5  1  0
 35 29  1  0
 47 41  1  0
M  END
>  <Molecule ChEMBL ID>  (46) 
CHEMBL1082940

>  <Smiles>  (46) 
CC(C)C[C@@H]1NC(=O)CNC(=O)[C@H](CCC(=O)O)NC(=O)[C@H](C)NC(=O)[C@H](Cc2ccc(O)cc2)NC(=O)[C@H](Cc2ccc(O)cc2)NC(=O)CC[C@@H](C(N)=O)NC(=O)[C@H](CCC(=O)O)NC1=O

>  <pChEMBL Value>  (46) 
4.46

>  <similarity>  (46) 
0.1

$$$$

     RDKit          2D

 71 73  0  0  0  0  0  0  0  0999 V2000
    9.9722   -1.2990    0.0000 C   0  0  0  0  0  0  0  0  0  0  0  0
    8.4722   -1.2990    0.0000 C   0  0  0  0  0  0  0  0  0  0  0  0
    7.7222   -2.5981    0.0000 C   0  0  0  0  0  0  0  0  0  0  0  0
    7.7222    0.0000    0.0000 C   0  0  0  0  0  0  0  0  0  0  0  0
    6.2222    0.0000    0.0000 C   0  0  0  0  0  0  0  0  0  0  0  0
    6.0414   -1.4891    0.0000 N   0  0  0  0  0  0  0  0  0  0  0  0
    5.5095   -2.8916    0.0000 C   0  0  0  0  0  0  0  0  0  0  0  0
    6.8376   -3.5887    0.0000 O   0  0  0  0  0  0  0  0  0  0  0  0
    4.6574   -4.1261    0.0000 C   0  0  0  0  0  0  0  0  0  0  0  0
    3.5346   -5.1207    0.0000 N   0  0  0  0  0  0  0  0  0  0  0  0
    2.2064   -5.8178    0.0000 C   0  0  0  0  0  0  0  0  0  0  0  0
    2.7383   -7.2204    0.0000 O   0  0  0  0  0  0  0  0  0  0  0  0
    0.7500   -6.1768    0.0000 C   0  0  0  0  0  0  0  0  0  0  0  0
    0.9308   -7.6659    0.0000 C   0  0  0  0  0  0  0  0  0  0  0  0
   -0.2684   -8.5670    0.0000 C   0  0  0  0  0  0  0  0  0  0  0  0
   -0.0876  -10.0560    0.0000 C   0  0  0  0  0  0  0  0  0  0  0  0
    1.2924  -10.6440    0.0000 O   0  0  0  0  0  0  0  0  0  0  0  0
   -1.2867  -10.9572    0.0000 O   0  0  0  0  0  0  0  0  0  0  0  0
   -0.7500   -6.1768    0.0000 N   0  0  0  0  0  0  0  0  0  0  0  0
   -2.2064   -5.8178    0.0000 C   0  0  0  0  0  0  0  0  0  0  0  0
   -2.7383   -7.2204    0.0000 O   0  0  0  0  0  0  0  0  0  0  0  0
   -3.5346   -5.1207    0.0000 C   0  0  0  0  0  0  0  0  0  0  0  0
   -4.3867   -6.3552    0.0000 C   0  0  0  0  0  0  0  0  0  0  0  0
   -5.8818   -6.2345    0.0000 C   0  0  0  0  0  0  0  0  0  0  0  0
   -6.5249   -4.8793    0.0000 O   0  0  0  0  0  0  0  0  0  0  0  0
   -6.7339   -7.4690    0.0000 O   0  0  0  0  0  0  0  0  0  0  0  0
   -4.6574   -4.1261    0.0000 N   0  0  0  0  0  0  0  0  0  0  0  0
   -5.5095   -2.8916    0.0000 C   0  0  0  0  0  0  0  0  0  0  0  0
   -6.8376   -3.5887    0.0000 O   0  0  0  0  0  0  0  0  0  0  0  0
   -6.0414   -1.4891    0.0000 C   0  0  0  0  0  0  0  0  0  0  0  0
   -7.4978   -1.8480    0.0000 C   0  0  0  0  0  0  0  0  0  0  0  0
   -8.5369   -0.7662    0.0000 C   0  0  0  0  0  0  0  0  0  0  0  0
   -8.1195    0.6745    0.0000 C   0  0  0  0  0  0  0  0  0  0  0  0
   -9.1586    1.7563    0.0000 C   0  0  0  0  0  0  0  0  0  0  0  0
  -10.6150    1.3974    0.0000 C   0  0  0  0  0  0  0  0  0  0  0  0
  -11.6541    2.4792    0.0000 O   0  0  0  0  0  0  0  0  0  0  0  0
  -11.0324   -0.0434    0.0000 C   0  0  0  0  0  0  0  0  0  0  0  0
   -9.9933   -1.1252    0.0000 C   0  0  0  0  0  0  0  0  0  0  0  0
   -6.2222    0.0000    0.0000 N   0  0  0  0  0  0  0  0  0  0  0  0
   -6.0414    1.4891    0.0000 C   0  0  0  0  0  0  0  0  0  0  0  0
   -7.4978    1.8480    0.0000 O   0  0  0  0  0  0  0  0  0  0  0  0
   -5.5095    2.8916    0.0000 C   0  0  0  0  0  0  0  0  0  0  0  0
   -6.8376    3.5887    0.0000 C   0  0  0  0  0  0  0  0  0  0  0  0
   -6.8980    5.0875    0.0000 C   0  0  0  0  0  0  0  0  0  0  0  0
   -5.6303    5.8892    0.0000 C   0  0  0  0  0  0  0  0  0  0  0  0
   -5.6907    7.3879    0.0000 C   0  0  0  0  0  0  0  0  0  0  0  0
   -7.0188    8.0850    0.0000 C   0  0  0  0  0  0  0  0  0  0  0  0
   -7.0792    9.5838    0.0000 O   0  0  0  0  0  0  0  0  0  0  0  0
   -8.2866    7.2833    0.0000 C   0  0  0  0  0  0  0  0  0  0  0  0
   -8.2262    5.7845    0.0000 C   0  0  0  0  0  0  0  0  0  0  0  0
   -4.6574    4.1261    0.0000 N   0  0  0  0  0  0  0  0  0  0  0  0
   -3.5346    5.1207    0.0000 C   0  0  0  0  0  0  0  0  0  0  0  0
   -4.3867    6.3552    0.0000 O   0  0  0  0  0  0  0  0  0  0  0  0
   -2.2064    5.8178    0.0000 C   0  0  0  0  0  0  0  0  0  0  0  0
   -0.7500    6.1768    0.0000 C   0  0  0  0  0  0  0  0  0  0  0  0
    0.7500    6.1768    0.0000 C   0  0  0  0  0  0  0  0  0  0  0  0
    0.9308    7.6659    0.0000 C   0  0  0  0  0  0  0  0  0  0  0  0
    2.3108    8.2538    0.0000 N   0  0  0  0  0  0  0  0  0  0  0  0
   -0.2684    8.5670    0.0000 O   0  0  0  0  0  0  0  0  0  0  0  0
    2.2064    5.8178    0.0000 N   0  0  0  0  0  0  0  0  0  0  0  0
    3.5346    5.1207    0.0000 C   0  0  0  0  0  0  0  0  0  0  0  0
    4.3867    6.3552    0.0000 O   0  0  0  0  0  0  0  0  0  0  0  0
    4.6574    4.1261    0.0000 C   0  0  0  0  0  0  0  0  0  0  0  0
    5.7801    5.1207    0.0000 C   0  0  0  0  0  0  0  0  0  0  0  0
    7.2029    4.6457    0.0000 C   0  0  0  0  0  0  0  0  0  0  0  0
    8.3257    5.6404    0.0000 C   0  0  0  0  0  0  0  0  0  0  0  0
    8.0257    7.1101    0.0000 O   0  0  0  0  0  0  0  0  0  0  0  0
    9.7485    5.1654    0.0000 O   0  0  0  0  0  0  0  0  0  0  0  0
    5.5095    2.8916    0.0000 N   0  0  0  0  0  0  0  0  0  0  0  0
    6.0414    1.4891    0.0000 C   0  0  0  0  0  0  0  0  0  0  0  0
    7.4978    1.8480    0.0000 O   0  0  0  0  0  0  0  0  0  0  0  0
  1  2  1  0
  2  3  1  0
  2  4  1  0
  5  4  1  6
  5  6  1  0
  6  7  1  0
  7  8  2  0
  7  9  1  0
  9 10  1  0
 10 11  1  0
 11 12  2  0
 11 13  1  0
 13 14  1  6
 14 15  1  0
 15 16  1  0
 16 17  2  0
 16 18  1  0
 13 19  1  0
 19 20  1  0
 20 21  2  0
 20 22  1  0
 22 23  1  6
 23 24  1  0
 24 25  2  0
 24 26  1  0
 22 27  1  0
 27 28  1  0
 28 29  2  0
 28 30  1  0
 30 31  1  6
 31 32  1  0
 32 33  2  0
 33 34  1  0
 34 35  2  0
 35 36  1  0
 35 37  1  0
 37 38  2  0
 30 39  1  0
 39 40  1  0
 40 41  2  0
 40 42  1  0
 42 43  1  6
 43 44  1  0
 44 45  2  0
 45 46  1  0
 46 47  2  0
 47 48  1  0
 47 49  1  0
 49 50  2  0
 42 51  1  0
 51 52  1  0
 52 53  2  0
 52 54  1  0
 54 55  1  0
 55 56  1  0
 56 57  1  1
 57 58  1  0
 57 59  2  0
 56 60  1  0
 60 61  1  0
 61 62  2  0
 61 63  1  0
 63 64  1  6
 64 65  1  0
 65 66  1  0
 66 67  2  0
 66 68  1  0
 63 69  1  0
 69 70  1  0
 70 71  2  0
 70  5  1  0
 38 32  1  0
 50 44  1  0
M  END
>  <Molecule ChEMBL ID>  (47) 
CHEMBL389147

>  <Smiles>  (47) 
CC(C)C[C@@H]1NC(=O)CNC(=O)[C@H](CCC(=O)O)NC(=O)[C@H](CC(=O)O)NC(=O)[C@H](Cc2ccc(O)cc2)NC(=O)[C@H](Cc2ccc(O)cc2)NC(=O)CC[C@@H](C(N)=O)NC(=O)[C@H](CCC(=O)O)NC1=O

>  <pChEMBL Value>  (47) 
4.64

>  <similarity>  (47) 
0.10101010101010101

$$$$

     RDKit          2D

 24 27  0  0  0  0  0  0  0  0999 V2000
   -7.2317   -6.0469    0.0000 N   0  0  0  0  0  0  0  0  0  0  0  0
   -6.9199   -4.5797    0.0000 C   0  0  0  0  0  0  0  0  0  0  0  0
   -8.0346   -3.5760    0.0000 N   0  0  0  0  0  0  0  0  0  0  0  0
   -7.7227   -2.1088    0.0000 C   0  0  0  0  0  0  0  0  0  0  0  0
   -6.2961   -1.6453    0.0000 C   0  0  0  0  0  0  0  0  0  0  0  0
   -5.1814   -2.6490    0.0000 C   0  0  0  0  0  0  0  0  0  0  0  0
   -3.7548   -2.1855    0.0000 C   0  0  0  0  0  0  0  0  0  0  0  0
   -2.6401   -3.1891    0.0000 C   0  0  0  0  0  0  0  0  0  0  0  0
   -1.2135   -2.7256    0.0000 C   0  0  0  0  0  0  0  0  0  0  0  0
   -0.0000   -3.6073    0.0000 C   0  0  0  0  0  0  0  0  0  0  0  0
   -0.0000   -5.1073    0.0000 C   0  0  0  0  0  0  0  0  0  0  0  0
   -1.2990   -5.8573    0.0000 C   0  0  0  0  0  0  0  0  0  0  0  0
   -1.2990   -7.3573    0.0000 C   0  0  0  0  0  0  0  0  0  0  0  0
   -0.0000   -8.1073    0.0000 C   0  0  0  0  0  0  0  0  0  0  0  0
    1.2990   -7.3573    0.0000 C   0  0  0  0  0  0  0  0  0  0  0  0
    1.2990   -5.8573    0.0000 C   0  0  0  0  0  0  0  0  0  0  0  0
    1.2135   -2.7256    0.0000 N   0  0  0  0  0  0  0  0  0  0  0  0
    0.7500   -1.2990    0.0000 C   0  0  0  0  0  0  0  0  0  0  0  0
    1.5000    0.0000    0.0000 C   0  0  0  0  0  0  0  0  0  0  0  0
    0.7500    1.2990    0.0000 C   0  0  0  0  0  0  0  0  0  0  0  0
   -0.7500    1.2990    0.0000 C   0  0  0  0  0  0  0  0  0  0  0  0
   -1.5000    0.0000    0.0000 C   0  0  0  0  0  0  0  0  0  0  0  0
   -0.7500   -1.2990    0.0000 N   0  0  0  0  0  0  0  0  0  0  0  0
   -5.4933   -4.1162    0.0000 N   0  0  0  0  0  0  0  0  0  0  0  0
  1  2  1  0
  2  3  2  0
  3  4  1  0
  4  5  2  0
  5  6  1  0
  6  7  1  0
  7  8  2  0
  8  9  1  0
  9 10  2  0
 10 11  1  0
 11 12  2  0
 12 13  1  0
 13 14  2  0
 14 15  1  0
 15 16  2  0
 10 17  1  0
 17 18  2  0
 18 19  1  0
 19 20  2  0
 20 21  1  0
 21 22  2  0
 22 23  1  0
  6 24  2  0
 24  2  1  0
 23  9  1  0
 16 11  1  0
 23 18  1  0
M  END
>  <Molecule ChEMBL ID>  (48) 
CHEMBL525065

>  <Smiles>  (48) 
Nc1nccc(/C=C/c2c(-c3ccccc3)nc3ccccn23)n1

>  <pChEMBL Value>  (48) 
4.1

>  <similarity>  (48) 
0.0625

$$$$

     RDKit          2D

 29 33  0  0  0  0  0  0  0  0999 V2000
   -5.5537  -10.0211    0.0000 N   0  0  0  0  0  0  0  0  0  0  0  0
   -5.5537   -8.5211    0.0000 C   0  0  0  0  0  0  0  0  0  0  0  0
   -6.8527   -7.7711    0.0000 N   0  0  0  0  0  0  0  0  0  0  0  0
   -6.8527   -6.2711    0.0000 C   0  0  0  0  0  0  0  0  0  0  0  0
   -8.1517   -5.5211    0.0000 N   0  0  0  0  0  0  0  0  0  0  0  0
   -9.4508   -6.2711    0.0000 C   0  0  0  0  0  0  0  0  0  0  0  0
  -10.7498   -5.5211    0.0000 C   0  0  0  0  0  0  0  0  0  0  0  0
  -12.0488   -6.2711    0.0000 C   0  0  0  0  0  0  0  0  0  0  0  0
  -12.0488   -7.7711    0.0000 C   0  0  0  0  0  0  0  0  0  0  0  0
  -10.7498   -8.5211    0.0000 C   0  0  0  0  0  0  0  0  0  0  0  0
  -10.7498  -10.0211    0.0000 Br  0  0  0  0  0  0  0  0  0  0  0  0
   -9.4508   -7.7711    0.0000 C   0  0  0  0  0  0  0  0  0  0  0  0
   -5.5537   -5.5211    0.0000 C   0  0  0  0  0  0  0  0  0  0  0  0
   -5.2418   -4.0539    0.0000 C   0  0  0  0  0  0  0  0  0  0  0  0
   -3.7500   -3.8971    0.0000 C   0  0  0  0  0  0  0  0  0  0  0  0
   -3.0000   -2.5981    0.0000 C   0  0  0  0  0  0  0  0  0  0  0  0
   -1.5000   -2.5981    0.0000 C   0  0  0  0  0  0  0  0  0  0  0  0
   -0.7500   -3.8971    0.0000 C   0  0  0  0  0  0  0  0  0  0  0  0
    0.7500   -3.8971    0.0000 C   0  0  0  0  0  0  0  0  0  0  0  0
    1.5000   -2.5981    0.0000 C   0  0  0  0  0  0  0  0  0  0  0  0
    0.7500   -1.2990    0.0000 C   0  0  0  0  0  0  0  0  0  0  0  0
    1.5000    0.0000    0.0000 C   0  0  0  0  0  0  0  0  0  0  0  0
    0.7500    1.2990    0.0000 C   0  0  0  0  0  0  0  0  0  0  0  0
   -0.7500    1.2990    0.0000 C   0  0  0  0  0  0  0  0  0  0  0  0
   -1.5000    0.0000    0.0000 C   0  0  0  0  0  0  0  0  0  0  0  0
   -0.7500   -1.2990    0.0000 C   0  0  0  0  0  0  0  0  0  0  0  0
   -3.1399   -5.2674    0.0000 N   0  0  0  0  0  0  0  0  0  0  0  0
   -4.2546   -6.2711    0.0000 C   0  0  0  0  0  0  0  0  0  0  0  0
   -4.2546   -7.7711    0.0000 N   0  0  0  0  0  0  0  0  0  0  0  0
  1  2  1  0
  2  3  2  0
  3  4  1  0
  4  5  1  0
  5  6  1  0
  6  7  2  0
  7  8  1  0
  8  9  2  0
  9 10  1  0
 10 11  1  0
 10 12  2  0
  4 13  2  0
 13 14  1  0
 14 15  2  0
 15 16  1  0
 16 17  1  0
 17 18  2  0
 18 19  1  0
 19 20  2  0
 20 21  1  0
 21 22  2  0
 22 23  1  0
 23 24  2  0
 24 25  1  0
 25 26  2  0
 15 27  1  0
 27 28  1  0
 28 29  2  0
 29  2  1  0
 12  6  1  0
 28 13  1  0
 26 17  1  0
 26 21  1  0
M  END
>  <Molecule ChEMBL ID>  (49) 
CHEMBL474538

>  <Smiles>  (49) 
Nc1nc(Nc2cccc(Br)c2)c2cc(Cc3cccc4ccccc34)[nH]c2n1

>  <pChEMBL Value>  (49) 
4.8

>  <similarity>  (49) 
0.13580246913580246

$$$$

     RDKit          2D

 24 25  0  0  0  0  0  0  0  0999 V2000
    3.7500   -1.2990    0.0000 C   0  0  0  0  0  0  0  0  0  0  0  0
    3.0000    0.0000    0.0000 O   0  0  0  0  0  0  0  0  0  0  0  0
    1.5000    0.0000    0.0000 C   0  0  0  0  0  0  0  0  0  0  0  0
    0.7500   -1.2990    0.0000 C   0  0  0  0  0  0  0  0  0  0  0  0
   -0.7500   -1.2990    0.0000 C   0  0  0  0  0  0  0  0  0  0  0  0
   -1.3361   -2.6798    0.0000 O   0  0  0  0  0  0  0  0  0  0  0  0
   -1.5000    0.0000    0.0000 C   0  0  0  0  0  0  0  0  0  0  0  0
   -0.7500    1.2990    0.0000 C   0  0  0  0  0  0  0  0  0  0  0  0
    0.7500    1.2990    0.0000 C   0  0  0  0  0  0  0  0  0  0  0  0
   -0.6379    2.7948    0.0000 C   0  0  0  0  0  0  0  0  0  0  0  0
   -1.1859    4.1912    0.0000 C   0  0  0  0  0  0  0  0  0  0  0  0
   -2.2855    5.2114    0.0000 C   0  0  0  0  0  0  0  0  0  0  0  0
   -3.7189    5.6535    0.0000 C   0  0  0  0  0  0  0  0  0  0  0  0
   -5.2021    5.4300    0.0000 C   0  0  0  0  0  0  0  0  0  0  0  0
   -6.4415    4.5850    0.0000 C   0  0  0  0  0  0  0  0  0  0  0  0
   -7.8748    5.0271    0.0000 O   0  0  0  0  0  0  0  0  0  0  0  0
   -6.5536    3.0892    0.0000 C   0  0  0  0  0  0  0  0  0  0  0  0
   -7.3036    1.7902    0.0000 C   0  0  0  0  0  0  0  0  0  0  0  0
   -6.7555    0.3938    0.0000 C   0  0  0  0  0  0  0  0  0  0  0  0
   -5.6560   -0.6264    0.0000 C   0  0  0  0  0  0  0  0  0  0  0  0
   -6.4060   -1.9254    0.0000 C   0  0  0  0  0  0  0  0  0  0  0  0
   -4.2226   -1.0685    0.0000 O   0  0  0  0  0  0  0  0  0  0  0  0
   -2.7394   -0.8450    0.0000 C   0  0  0  0  0  0  0  0  0  0  0  0
   -2.3656   -2.2977    0.0000 O   0  0  0  0  0  0  0  0  0  0  0  0
  1  2  1  0
  2  3  1  0
  3  4  2  0
  4  5  1  0
  5  6  1  0
  5  7  2  0
  7  8  1  0
  8  9  2  0
  8 10  1  0
 10 11  2  0
 11 12  1  0
 12 13  1  0
 13 14  1  0
 14 15  1  0
 15 16  2  0
 15 17  1  0
 17 18  2  0
 18 19  1  0
 19 20  1  0
 20 21  1  1
 20 22  1  0
 22 23  1  0
 23 24  2  0
  9  3  1  0
 23  7  1  0
M  END
>  <Molecule ChEMBL ID>  (50) 
CHEMBL1668420

>  <Smiles>  (50) 
COc1cc(O)c2c(c1)/C=C\CCCC(=O)/C=C/C[C@H](C)OC2=O

>  <pChEMBL Value>  (50) 
4.82

>  <similarity>  (50) 
0.10843373493975904

$$$$

     RDKit          2D

 21 23  0  0  0  0  0  0  0  0999 V2000
    1.8478   -6.4639    0.0000 C   0  0  0  0  0  0  0  0  0  0  0  0
    2.0046   -4.9721    0.0000 N   0  0  0  0  0  0  0  0  0  0  0  0
    3.3037   -4.2221    0.0000 C   0  0  0  0  0  0  0  0  0  0  0  0
    2.9918   -2.7549    0.0000 N   0  0  0  0  0  0  0  0  0  0  0  0
    1.5000   -2.5981    0.0000 C   0  0  0  0  0  0  0  0  0  0  0  0
    0.7500   -1.2990    0.0000 C   0  0  0  0  0  0  0  0  0  0  0  0
    1.5000    0.0000    0.0000 C   0  0  0  0  0  0  0  0  0  0  0  0
    0.7500    1.2990    0.0000 C   0  0  0  0  0  0  0  0  0  0  0  0
   -0.7500    1.2990    0.0000 C   0  0  0  0  0  0  0  0  0  0  0  0
   -1.5000    0.0000    0.0000 C   0  0  0  0  0  0  0  0  0  0  0  0
   -0.7500   -1.2990    0.0000 C   0  0  0  0  0  0  0  0  0  0  0  0
    0.8899   -3.9684    0.0000 C   0  0  0  0  0  0  0  0  0  0  0  0
   -0.5773   -4.2803    0.0000 C   0  0  0  0  0  0  0  0  0  0  0  0
   -1.0409   -5.7068    0.0000 C   0  0  0  0  0  0  0  0  0  0  0  0
   -2.5081   -6.0187    0.0000 C   0  0  0  0  0  0  0  0  0  0  0  0
   -3.5118   -4.9040    0.0000 C   0  0  0  0  0  0  0  0  0  0  0  0
   -4.9790   -5.2159    0.0000 C   0  0  0  0  0  0  0  0  0  0  0  0
   -5.4425   -6.6424    0.0000 N   0  0  0  0  0  0  0  0  0  0  0  0
   -4.4388   -7.7572    0.0000 C   0  0  0  0  0  0  0  0  0  0  0  0
   -4.9023   -9.1838    0.0000 N   0  0  0  0  0  0  0  0  0  0  0  0
   -2.9716   -7.4453    0.0000 N   0  0  0  0  0  0  0  0  0  0  0  0
  1  2  1  0
  2  3  1  0
  3  4  2  0
  4  5  1  0
  5  6  1  0
  6  7  2  0
  7  8  1  0
  8  9  2  0
  9 10  1  0
 10 11  2  0
  5 12  2  0
 12 13  1  0
 13 14  2  0
 14 15  1  0
 15 16  2  0
 16 17  1  0
 17 18  2  0
 18 19  1  0
 19 20  1  0
 19 21  2  0
 12  2  1  0
 21 15  1  0
 11  6  1  0
M  END
>  <Molecule ChEMBL ID>  (51) 
CHEMBL526925

>  <Smiles>  (51) 
Cn1cnc(-c2ccccc2)c1/C=C/c1ccnc(N)n1

>  <pChEMBL Value>  (51) 
4.47

>  <similarity>  (51) 
0.07792207792207792

$$$$

     RDKit          2D

101106  0  0  0  0  0  0  0  0999 V2000
   20.2184   -4.7719    0.0000 C   0  0  0  0  0  0  0  0  0  0  0  0
   18.9193   -4.0219    0.0000 C   0  0  0  0  0  0  0  0  0  0  0  0
   17.6203   -4.7719    0.0000 C   0  0  0  0  0  0  0  0  0  0  0  0
   17.6203   -6.2719    0.0000 C   0  0  0  0  0  0  0  0  0  0  0  0
   16.3212   -4.0219    0.0000 C   0  0  0  0  0  0  0  0  0  0  0  0
   16.9552   -2.6624    0.0000 N   0  0  0  0  0  0  0  0  0  0  0  0
   17.3434   -1.2135    0.0000 C   0  0  0  0  0  0  0  0  0  0  0  0
   18.8206   -1.4740    0.0000 O   0  0  0  0  0  0  0  0  0  0  0  0
   17.4741    0.2808    0.0000 C   0  0  0  0  0  0  0  0  0  0  0  0
   18.9741    0.2808    0.0000 C   0  0  0  0  0  0  0  0  0  0  0  0
   19.7241   -1.0183    0.0000 C   0  0  0  0  0  0  0  0  0  0  0  0
   21.2241   -1.0183    0.0000 S   0  0  0  0  0  0  0  0  0  0  0  0
   21.9741   -2.3173    0.0000 C   0  0  0  0  0  0  0  0  0  0  0  0
   17.3434    1.7751    0.0000 N   0  0  0  0  0  0  0  0  0  0  0  0
   16.9552    3.2239    0.0000 C   0  0  0  0  0  0  0  0  0  0  0  0
   18.3647    3.7370    0.0000 O   0  0  0  0  0  0  0  0  0  0  0  0
   16.3212    4.5834    0.0000 C   0  0  0  0  0  0  0  0  0  0  0  0
   17.6203    5.3334    0.0000 C   0  0  0  0  0  0  0  0  0  0  0  0
   18.9193    4.5834    0.0000 C   0  0  0  0  0  0  0  0  0  0  0  0
   20.2184    5.3334    0.0000 C   0  0  0  0  0  0  0  0  0  0  0  0
   21.5174    4.5834    0.0000 C   0  0  0  0  0  0  0  0  0  0  0  0
   22.8164    5.3334    0.0000 N   0  0  0  0  0  0  0  0  0  0  0  0
   15.4609    5.8121    0.0000 N   0  0  0  0  0  0  0  0  0  0  0  0
   14.4002    6.8728    0.0000 C   0  0  0  0  0  0  0  0  0  0  0  0
   15.2888    7.7014    0.0000 O   0  0  0  0  0  0  0  0  0  0  0  0
   13.1715    7.7332    0.0000 C   0  0  0  0  0  0  0  0  0  0  0  0
   13.9215    9.0322    0.0000 C   0  0  0  0  0  0  0  0  0  0  0  0
   15.4215    9.0322    0.0000 C   0  0  0  0  0  0  0  0  0  0  0  0
   16.1715   10.3312    0.0000 N   0  0  0  0  0  0  0  0  0  0  0  0
   16.1527    8.0619    0.0000 O   0  0  0  0  0  0  0  0  0  0  0  0
   11.8120    8.3671    0.0000 N   0  0  0  0  0  0  0  0  0  0  0  0
   10.3631    8.7553    0.0000 C   0  0  0  0  0  0  0  0  0  0  0  0
   10.7184    9.9172    0.0000 O   0  0  0  0  0  0  0  0  0  0  0  0
    8.8688    8.8861    0.0000 C   0  0  0  0  0  0  0  0  0  0  0  0
    8.8688   10.3861    0.0000 C   0  0  0  0  0  0  0  0  0  0  0  0
   10.1679   11.1361    0.0000 C   0  0  0  0  0  0  0  0  0  0  0  0
   11.2863   10.6613    0.0000 O   0  0  0  0  0  0  0  0  0  0  0  0
   10.1679   12.6361    0.0000 O   0  0  0  0  0  0  0  0  0  0  0  0
    7.3746    8.7553    0.0000 N   0  0  0  0  0  0  0  0  0  0  0  0
    5.9257    8.3671    0.0000 C   0  0  0  0  0  0  0  0  0  0  0  0
    5.4126    9.7766    0.0000 O   0  0  0  0  0  0  0  0  0  0  0  0
    4.5662    7.7332    0.0000 C   0  0  0  0  0  0  0  0  0  0  0  0
    3.8162    9.0322    0.0000 C   0  0  0  0  0  0  0  0  0  0  0  0
    4.5662   10.3312    0.0000 C   0  0  0  0  0  0  0  0  0  0  0  0
    3.8162   11.6303    0.0000 C   0  0  0  0  0  0  0  0  0  0  0  0
    6.0662   10.3312    0.0000 C   0  0  0  0  0  0  0  0  0  0  0  0
    3.3375    6.8728    0.0000 N   0  0  0  0  0  0  0  0  0  0  0  0
    2.2768    5.8121    0.0000 C   0  0  0  0  0  0  0  0  0  0  0  0
    1.1278    6.7763    0.0000 O   0  0  0  0  0  0  0  0  0  0  0  0
    1.4165    4.5834    0.0000 C   0  0  0  0  0  0  0  0  0  0  0  0
    0.7825    3.2239    0.0000 N   0  0  0  0  0  0  0  0  0  0  0  0
    0.3943    1.2135    0.0000 N   0  0  0  0  0  0  0  0  0  0  0  0
    1.2760    0.0000    0.0000 C   0  0  0  0  0  0  0  0  0  0  0  0
    0.3943   -1.2135    0.0000 C   0  0  0  0  0  0  0  0  0  0  0  0
   -1.0323   -0.7500    0.0000 N   0  0  0  0  0  0  0  0  0  0  0  0
   -1.0323    0.7500    0.0000 N   0  0  0  0  0  0  0  0  0  0  0  0
    0.7825   -2.6624    0.0000 C   0  0  0  0  0  0  0  0  0  0  0  0
    1.4165   -4.0219    0.0000 C   0  0  0  0  0  0  0  0  0  0  0  0
    0.1174   -4.7719    0.0000 C   0  0  0  0  0  0  0  0  0  0  0  0
   -1.1816   -4.0219    0.0000 N   0  0  0  0  0  0  0  0  0  0  0  0
    0.1174   -6.2719    0.0000 O   0  0  0  0  0  0  0  0  0  0  0  0
    2.2768   -5.2506    0.0000 N   0  0  0  0  0  0  0  0  0  0  0  0
    3.3375   -6.3113    0.0000 C   0  0  0  0  0  0  0  0  0  0  0  0
    2.3733   -7.4603    0.0000 O   0  0  0  0  0  0  0  0  0  0  0  0
    4.5662   -7.1716    0.0000 C   0  0  0  0  0  0  0  0  0  0  0  0
    3.8162   -8.4707    0.0000 C   0  0  0  0  0  0  0  0  0  0  0  0
    2.3162   -8.4707    0.0000 C   0  0  0  0  0  0  0  0  0  0  0  0
    1.5662   -7.1716    0.0000 C   0  0  0  0  0  0  0  0  0  0  0  0
    0.0662   -7.1716    0.0000 C   0  0  0  0  0  0  0  0  0  0  0  0
   -0.6838   -8.4707    0.0000 C   0  0  0  0  0  0  0  0  0  0  0  0
   -2.1838   -8.4707    0.0000 O   0  0  0  0  0  0  0  0  0  0  0  0
    0.0662   -9.7697    0.0000 C   0  0  0  0  0  0  0  0  0  0  0  0
    1.5662   -9.7697    0.0000 C   0  0  0  0  0  0  0  0  0  0  0  0
    5.9257   -7.8056    0.0000 N   0  0  0  0  0  0  0  0  0  0  0  0
    7.3746   -8.1938    0.0000 C   0  0  0  0  0  0  0  0  0  0  0  0
    7.1141   -9.6710    0.0000 O   0  0  0  0  0  0  0  0  0  0  0  0
    8.8688   -8.3245    0.0000 C   0  0  0  0  0  0  0  0  0  0  0  0
    8.8688   -9.8245    0.0000 C   0  0  0  0  0  0  0  0  0  0  0  0
    7.5698  -10.5745    0.0000 C   0  0  0  0  0  0  0  0  0  0  0  0
    6.1995   -9.9644    0.0000 C   0  0  0  0  0  0  0  0  0  0  0  0
    5.1958  -11.0791    0.0000 N   0  0  0  0  0  0  0  0  0  0  0  0
    5.9458  -12.3782    0.0000 C   0  0  0  0  0  0  0  0  0  0  0  0
    5.4823  -13.8048    0.0000 C   0  0  0  0  0  0  0  0  0  0  0  0
    6.4860  -14.9195    0.0000 C   0  0  0  0  0  0  0  0  0  0  0  0
    7.9532  -14.6076    0.0000 C   0  0  0  0  0  0  0  0  0  0  0  0
    8.4167  -13.1810    0.0000 C   0  0  0  0  0  0  0  0  0  0  0  0
    7.4130  -12.0663    0.0000 C   0  0  0  0  0  0  0  0  0  0  0  0
   10.3631   -8.1938    0.0000 N   0  0  0  0  0  0  0  0  0  0  0  0
   11.8120   -7.8056    0.0000 C   0  0  0  0  0  0  0  0  0  0  0  0
   12.3251   -9.2151    0.0000 O   0  0  0  0  0  0  0  0  0  0  0  0
   13.1715   -7.1716    0.0000 C   0  0  0  0  0  0  0  0  0  0  0  0
   13.9215   -8.4707    0.0000 C   0  0  0  0  0  0  0  0  0  0  0  0
   13.1715   -9.7697    0.0000 C   0  0  0  0  0  0  0  0  0  0  0  0
   11.6715   -9.7697    0.0000 C   0  0  0  0  0  0  0  0  0  0  0  0
   10.9215  -11.0687    0.0000 C   0  0  0  0  0  0  0  0  0  0  0  0
   11.6715  -12.3678    0.0000 C   0  0  0  0  0  0  0  0  0  0  0  0
   13.1715  -12.3678    0.0000 C   0  0  0  0  0  0  0  0  0  0  0  0
   13.9215  -11.0687    0.0000 C   0  0  0  0  0  0  0  0  0  0  0  0
   14.4002   -6.3113    0.0000 N   0  0  0  0  0  0  0  0  0  0  0  0
   15.4609   -5.2506    0.0000 C   0  0  0  0  0  0  0  0  0  0  0  0
   16.6099   -6.2148    0.0000 O   0  0  0  0  0  0  0  0  0  0  0  0
  1  2  1  0
  2  3  1  0
  3  4  1  6
  3  5  1  0
  5  6  1  1
  6  7  1  0
  7  8  2  0
  7  9  1  0
  9 10  1  1
 10 11  1  0
 11 12  1  0
 12 13  1  0
  9 14  1  0
 14 15  1  0
 15 16  2  0
 15 17  1  0
 17 18  1  1
 18 19  1  0
 19 20  1  0
 20 21  1  0
 21 22  1  0
 17 23  1  0
 23 24  1  0
 24 25  2  0
 24 26  1  0
 26 27  1  1
 27 28  1  0
 28 29  1  0
 28 30  2  0
 26 31  1  0
 31 32  1  0
 32 33  2  0
 32 34  1  0
 34 35  1  1
 35 36  1  0
 36 37  2  0
 36 38  1  0
 34 39  1  0
 39 40  1  0
 40 41  2  0
 40 42  1  0
 42 43  1  1
 43 44  1  0
 44 45  1  0
 44 46  1  0
 42 47  1  0
 47 48  1  0
 48 49  2  0
 48 50  1  0
 50 51  1  0
 51 52  1  0
 52 53  1  0
 53 54  2  0
 54 55  1  0
 55 56  2  0
 54 57  1  0
 57 58  1  0
 58 59  1  6
 59 60  1  0
 59 61  2  0
 58 62  1  0
 62 63  1  0
 63 64  2  0
 63 65  1  0
 65 66  1  1
 66 67  1  0
 67 68  2  0
 68 69  1  0
 69 70  2  0
 70 71  1  0
 70 72  1  0
 72 73  2  0
 65 74  1  0
 74 75  1  0
 75 76  2  0
 75 77  1  0
 77 78  1  1
 78 79  1  0
 79 80  2  0
 80 81  1  0
 81 82  1  0
 82 83  2  0
 83 84  1  0
 84 85  2  0
 85 86  1  0
 86 87  2  0
 77 88  1  0
 88 89  1  0
 89 90  2  0
 89 91  1  0
 91 92  1  1
 92 93  1  0
 93 94  2  0
 94 95  1  0
 95 96  2  0
 96 97  1  0
 97 98  2  0
 91 99  1  0
 99100  1  0
100101  2  0
100  5  1  0
 56 52  1  0
 73 67  1  0
 87 79  1  0
 98 93  1  0
 87 82  1  0
M  END
>  <Molecule ChEMBL ID>  (52) 
CHEMBL398243

>  <Smiles>  (52) 
CC[C@H](C)[C@@H]1NC(=O)[C@H](CCSC)NC(=O)[C@H](CCCCN)NC(=O)[C@H](CC(N)=O)NC(=O)[C@H](CC(=O)O)NC(=O)[C@H](CC(C)C)NC(=O)CNn2cc(nn2)C[C@@H](C(N)=O)NC(=O)[C@H](Cc2ccc(O)cc2)NC(=O)[C@H](Cc2c[nH]c3ccccc23)NC(=O)[C@H](Cc2ccccc2)NC1=O

>  <pChEMBL Value>  (52) 
4.51

>  <similarity>  (52) 
0.10948905109489052

$$$$

     RDKit          2D

 89 91  0  0  0  0  0  0  0  0999 V2000
    1.6082   19.4287    0.0000 C   0  0  0  0  0  0  0  0  0  0  0  0
    0.3883   18.5558    0.0000 C   0  0  0  0  0  0  0  0  0  0  0  0
   -0.9776   19.1758    0.0000 C   0  0  0  0  0  0  0  0  0  0  0  0
   -1.1236   20.6686    0.0000 C   0  0  0  0  0  0  0  0  0  0  0  0
   -2.1974   18.3029    0.0000 C   0  0  0  0  0  0  0  0  0  0  0  0
   -2.0514   16.8100    0.0000 N   0  0  0  0  0  0  0  0  0  0  0  0
   -3.2713   15.9371    0.0000 C   0  0  0  0  0  0  0  0  0  0  0  0
   -4.6372   16.5571    0.0000 O   0  0  0  0  0  0  0  0  0  0  0  0
   -3.1253   14.4442    0.0000 C   0  0  0  0  0  0  0  0  0  0  0  0
   -1.6254   14.4280    0.0000 C   0  0  0  0  0  0  0  0  0  0  0  0
   -0.1640   14.0897    0.0000 C   0  0  0  0  0  0  0  0  0  0  0  0
    0.3303   15.5059    0.0000 O   0  0  0  0  0  0  0  0  0  0  0  0
    1.1905   13.4451    0.0000 N   0  0  0  0  0  0  0  0  0  0  0  0
    2.3747   12.5245    0.0000 C   0  0  0  0  0  0  0  0  0  0  0  0
    3.3333   11.3708    0.0000 C   0  0  0  0  0  0  0  0  0  0  0  0
    4.5839   12.1991    0.0000 N   0  0  0  0  0  0  0  0  0  0  0  0
    4.4919   13.6963    0.0000 C   0  0  0  0  0  0  0  0  0  0  0  0
    3.1493   14.3651    0.0000 O   0  0  0  0  0  0  0  0  0  0  0  0
    5.7425   14.5245    0.0000 C   0  0  0  0  0  0  0  0  0  0  0  0
    5.6504   16.0217    0.0000 C   0  0  0  0  0  0  0  0  0  0  0  0
    6.9010   16.8500    0.0000 C   0  0  0  0  0  0  0  0  0  0  0  0
    6.8090   18.3472    0.0000 S   0  0  0  0  0  0  0  0  0  0  0  0
    8.0596   19.1754    0.0000 C   0  0  0  0  0  0  0  0  0  0  0  0
    7.0851   13.8556    0.0000 N   0  0  0  0  0  0  0  0  0  0  0  0
    8.3356   14.6839    0.0000 C   0  0  0  0  0  0  0  0  0  0  0  0
    9.6783   14.0150    0.0000 C   0  0  0  0  0  0  0  0  0  0  0  0
    8.2436   16.1811    0.0000 O   0  0  0  0  0  0  0  0  0  0  0  0
    4.0215   10.0380    0.0000 C   0  0  0  0  0  0  0  0  0  0  0  0
    5.4209   10.5781    0.0000 O   0  0  0  0  0  0  0  0  0  0  0  0
    4.4072    8.5884    0.0000 N   0  0  0  0  0  0  0  0  0  0  0  0
    4.4721    7.0898    0.0000 C   0  0  0  0  0  0  0  0  0  0  0  0
    5.9690    6.9924    0.0000 C   0  0  0  0  0  0  0  0  0  0  0  0
    6.6330    5.6474    0.0000 C   0  0  0  0  0  0  0  0  0  0  0  0
    6.8018    8.2400    0.0000 C   0  0  0  0  0  0  0  0  0  0  0  0
    8.2986    8.1425    0.0000 C   0  0  0  0  0  0  0  0  0  0  0  0
    4.2134    5.6123    0.0000 C   0  0  0  0  0  0  0  0  0  0  0  0
    5.6543    5.1954    0.0000 O   0  0  0  0  0  0  0  0  0  0  0  0
    3.6432    4.2249    0.0000 N   0  0  0  0  0  0  0  0  0  0  0  0
    2.7880    2.9926    0.0000 C   0  0  0  0  0  0  0  0  0  0  0  0
    3.9206    2.0092    0.0000 C   0  0  0  0  0  0  0  0  0  0  0  0
    5.3386    2.4984    0.0000 C   0  0  0  0  0  0  0  0  0  0  0  0
    6.4713    1.5150    0.0000 C   0  0  0  0  0  0  0  0  0  0  0  0
    7.8893    2.0042    0.0000 C   0  0  0  0  0  0  0  0  0  0  0  0
    9.0219    1.0208    0.0000 N   0  0  0  0  0  0  0  0  0  0  0  0
    1.6879    1.9729    0.0000 C   0  0  0  0  0  0  0  0  0  0  0  0
    2.5827    0.7690    0.0000 O   0  0  0  0  0  0  0  0  0  0  0  0
    0.3943    1.2135    0.0000 N   0  0  0  0  0  0  0  0  0  0  0  0
    1.2760    0.0000    0.0000 C   0  0  0  0  0  0  0  0  0  0  0  0
    0.3943   -1.2135    0.0000 C   0  0  0  0  0  0  0  0  0  0  0  0
   -1.0323   -0.7500    0.0000 C   0  0  0  0  0  0  0  0  0  0  0  0
   -1.0323    0.7500    0.0000 C   0  0  0  0  0  0  0  0  0  0  0  0
   -2.5252    0.6040    0.0000 C   0  0  0  0  0  0  0  0  0  0  0  0
   -2.5414   -0.8959    0.0000 O   0  0  0  0  0  0  0  0  0  0  0  0
   -4.0145    0.7823    0.0000 N   0  0  0  0  0  0  0  0  0  0  0  0
   -5.4307    1.2766    0.0000 C   0  0  0  0  0  0  0  0  0  0  0  0
   -6.0753   -0.0778    0.0000 C   0  0  0  0  0  0  0  0  0  0  0  0
   -7.5705   -0.1969    0.0000 C   0  0  0  0  0  0  0  0  0  0  0  0
   -8.3531   -1.4765    0.0000 C   0  0  0  0  0  0  0  0  0  0  0  0
   -9.8120   -1.1277    0.0000 N   0  0  0  0  0  0  0  0  0  0  0  0
   -9.9310    0.3676    0.0000 C   0  0  0  0  0  0  0  0  0  0  0  0
   -8.5457    0.9429    0.0000 N   0  0  0  0  0  0  0  0  0  0  0  0
   -6.7076    2.0638    0.0000 C   0  0  0  0  0  0  0  0  0  0  0  0
   -7.6282    0.8796    0.0000 O   0  0  0  0  0  0  0  0  0  0  0  0
   -7.7853    3.1071    0.0000 N   0  0  0  0  0  0  0  0  0  0  0  0
   -8.6136    4.3577    0.0000 C   0  0  0  0  0  0  0  0  0  0  0  0
   -9.9464    3.6695    0.0000 C   0  0  0  0  0  0  0  0  0  0  0  0
  -11.2088    4.4796    0.0000 C   0  0  0  0  0  0  0  0  0  0  0  0
  -12.5416    3.7914    0.0000 C   0  0  0  0  0  0  0  0  0  0  0  0
  -13.8040    4.6015    0.0000 N   0  0  0  0  0  0  0  0  0  0  0  0
  -12.6120    2.2931    0.0000 O   0  0  0  0  0  0  0  0  0  0  0  0
   -9.1537    5.7571    0.0000 C   0  0  0  0  0  0  0  0  0  0  0  0
  -10.6033    5.3715    0.0000 O   0  0  0  0  0  0  0  0  0  0  0  0
   -9.3803    7.2399    0.0000 N   0  0  0  0  0  0  0  0  0  0  0  0
   -9.2829    8.7367    0.0000 C   0  0  0  0  0  0  0  0  0  0  0  0
   -8.8660   10.1776    0.0000 C   0  0  0  0  0  0  0  0  0  0  0  0
  -10.2533   10.7479    0.0000 O   0  0  0  0  0  0  0  0  0  0  0  0
   -8.1490   11.4952    0.0000 N   0  0  0  0  0  0  0  0  0  0  0  0
   -7.1656   12.6278    0.0000 C   0  0  0  0  0  0  0  0  0  0  0  0
   -8.1853   13.7279    0.0000 C   0  0  0  0  0  0  0  0  0  0  0  0
   -7.7424   15.1611    0.0000 C   0  0  0  0  0  0  0  0  0  0  0  0
   -8.7621   16.2612    0.0000 C   0  0  0  0  0  0  0  0  0  0  0  0
   -8.3193   17.6943    0.0000 N   0  0  0  0  0  0  0  0  0  0  0  0
  -10.2247   15.9282    0.0000 O   0  0  0  0  0  0  0  0  0  0  0  0
   -5.9617   13.5226    0.0000 C   0  0  0  0  0  0  0  0  0  0  0  0
   -6.7211   14.8162    0.0000 O   0  0  0  0  0  0  0  0  0  0  0  0
   -4.5936   14.1377    0.0000 N   0  0  0  0  0  0  0  0  0  0  0  0
   -3.5633   18.9229    0.0000 C   0  0  0  0  0  0  0  0  0  0  0  0
   -3.7093   20.4157    0.0000 N   0  0  0  0  0  0  0  0  0  0  0  0
   -4.7832   18.0500    0.0000 O   0  0  0  0  0  0  0  0  0  0  0  0
  1  2  1  0
  2  3  1  0
  3  4  1  1
  3  5  1  0
  5  6  1  6
  6  7  1  0
  7  8  2  0
  9  7  1  6
  9 10  1  0
 10 11  1  0
 11 12  2  0
 11 13  1  0
 13 14  1  0
 14 15  1  0
 15 16  1  6
 16 17  1  0
 17 18  2  0
 17 19  1  0
 19 20  1  6
 20 21  1  0
 21 22  1  0
 22 23  1  0
 19 24  1  0
 24 25  1  0
 25 26  1  0
 25 27  2  0
 15 28  1  0
 28 29  2  0
 28 30  1  0
 31 30  1  1
 31 32  1  0
 32 33  1  6
 32 34  1  0
 34 35  1  0
 31 36  1  0
 36 37  2  0
 36 38  1  0
 38 39  1  0
 39 40  1  1
 40 41  1  0
 41 42  1  0
 42 43  1  0
 43 44  1  0
 39 45  1  0
 45 46  2  0
 45 47  1  0
 47 48  1  0
 48 49  1  0
 49 50  1  0
 51 50  1  1
 51 52  1  0
 52 53  2  0
 52 54  1  0
 54 55  1  0
 55 56  1  1
 56 57  1  0
 57 58  2  0
 58 59  1  0
 59 60  2  0
 60 61  1  0
 55 62  1  0
 62 63  2  0
 62 64  1  0
 64 65  1  0
 65 66  1  1
 66 67  1  0
 67 68  1  0
 68 69  1  0
 68 70  2  0
 65 71  1  0
 71 72  2  0
 71 73  1  0
 73 74  1  0
 74 75  1  0
 75 76  2  0
 75 77  1  0
 77 78  1  0
 78 79  1  1
 79 80  1  0
 80 81  1  0
 81 82  1  0
 81 83  2  0
 78 84  1  0
 84 85  2  0
 84 86  1  0
  5 87  1  0
 87 88  1  0
 87 89  2  0
 86  9  1  0
 51 47  1  0
 61 57  1  0
M  END
>  <Molecule ChEMBL ID>  (53) 
CHEMBL2367589

>  <Smiles>  (53) 
CC[C@H](C)[C@H](NC(=O)[C@@H]1CC(=O)NC[C@H](NC(=O)[C@H](CCSC)NC(C)=O)C(=O)N[C@@H]([C@@H](C)CC)C(=O)N[C@@H](CCCCN)C(=O)N2CCC[C@H]2C(=O)N[C@@H](Cc2cnc[nH]2)C(=O)N[C@@H](CCC(N)=O)C(=O)NCC(=O)N[C@@H](CCC(N)=O)C(=O)N1)C(N)=O

>  <pChEMBL Value>  (53) 
4.03

>  <similarity>  (53) 
0.06666666666666667

$$$$

     RDKit          2D

 28 31  0  0  0  0  0  0  0  0999 V2000
    5.6464    8.9702    0.0000 C   0  0  0  0  0  0  0  0  0  0  0  0
    4.1791    8.6583    0.0000 O   0  0  0  0  0  0  0  0  0  0  0  0
    3.7156    7.2317    0.0000 C   0  0  0  0  0  0  0  0  0  0  0  0
    4.7193    6.1170    0.0000 C   0  0  0  0  0  0  0  0  0  0  0  0
    4.2558    4.6904    0.0000 C   0  0  0  0  0  0  0  0  0  0  0  0
    2.7886    4.3786    0.0000 C   0  0  0  0  0  0  0  0  0  0  0  0
    2.3250    2.9520    0.0000 C   0  0  0  0  0  0  0  0  0  0  0  0
    0.8578    2.6401    0.0000 C   0  0  0  0  0  0  0  0  0  0  0  0
    0.3943    1.2135    0.0000 C   0  0  0  0  0  0  0  0  0  0  0  0
    1.2760    0.0000    0.0000 C   0  0  0  0  0  0  0  0  0  0  0  0
    0.3943   -1.2135    0.0000 C   0  0  0  0  0  0  0  0  0  0  0  0
    0.7062   -2.6807    0.0000 C   0  0  0  0  0  0  0  0  0  0  0  0
    2.1328   -3.1443    0.0000 N   0  0  0  0  0  0  0  0  0  0  0  0
    2.4446   -4.6115    0.0000 C   0  0  0  0  0  0  0  0  0  0  0  0
    1.3299   -5.6152    0.0000 C   0  0  0  0  0  0  0  0  0  0  0  0
    1.6418   -7.0824    0.0000 C   0  0  0  0  0  0  0  0  0  0  0  0
    3.0684   -7.5459    0.0000 C   0  0  0  0  0  0  0  0  0  0  0  0
    4.1831   -6.5422    0.0000 C   0  0  0  0  0  0  0  0  0  0  0  0
    5.6097   -7.0058    0.0000 Br  0  0  0  0  0  0  0  0  0  0  0  0
    3.8712   -5.0750    0.0000 C   0  0  0  0  0  0  0  0  0  0  0  0
   -0.4086   -3.6844    0.0000 N   0  0  0  0  0  0  0  0  0  0  0  0
   -1.8351   -3.2209    0.0000 C   0  0  0  0  0  0  0  0  0  0  0  0
   -2.9499   -4.2246    0.0000 N   0  0  0  0  0  0  0  0  0  0  0  0
   -2.1470   -1.7537    0.0000 N   0  0  0  0  0  0  0  0  0  0  0  0
   -1.0323   -0.7500    0.0000 C   0  0  0  0  0  0  0  0  0  0  0  0
   -1.0323    0.7500    0.0000 N   0  0  0  0  0  0  0  0  0  0  0  0
    1.7849    5.4933    0.0000 C   0  0  0  0  0  0  0  0  0  0  0  0
    2.2484    6.9199    0.0000 C   0  0  0  0  0  0  0  0  0  0  0  0
  1  2  1  0
  2  3  1  0
  3  4  2  0
  4  5  1  0
  5  6  2  0
  6  7  1  0
  7  8  1  0
  8  9  1  0
  9 10  2  0
 10 11  1  0
 11 12  2  0
 12 13  1  0
 13 14  1  0
 14 15  2  0
 15 16  1  0
 16 17  2  0
 17 18  1  0
 18 19  1  0
 18 20  2  0
 12 21  1  0
 21 22  2  0
 22 23  1  0
 22 24  1  0
 24 25  2  0
 25 26  1  0
  6 27  1  0
 27 28  2  0
 28  3  1  0
 26  9  1  0
 25 11  1  0
 20 14  1  0
M  END
>  <Molecule ChEMBL ID>  (54) 
CHEMBL485321

>  <Smiles>  (54) 
COc1ccc(CCc2cc3c(Nc4cccc(Br)c4)nc(N)nc3[nH]2)cc1

>  <pChEMBL Value>  (54) 
4.5

>  <similarity>  (54) 
0.12941176470588237

$$$$

     RDKit          2D

 29 32  0  0  0  0  0  0  0  0999 V2000
  -12.2130   -2.4826    0.0000 C   0  0  0  0  0  0  0  0  0  0  0  0
  -10.9140   -3.2326    0.0000 C   0  0  0  0  0  0  0  0  0  0  0  0
   -9.6149   -3.9826    0.0000 C   0  0  0  0  0  0  0  0  0  0  0  0
  -11.6640   -4.5317    0.0000 C   0  0  0  0  0  0  0  0  0  0  0  0
  -10.1640   -1.9336    0.0000 C   0  0  0  0  0  0  0  0  0  0  0  0
  -10.9140   -0.6346    0.0000 O   0  0  0  0  0  0  0  0  0  0  0  0
   -8.6640   -1.9336    0.0000 N   0  0  0  0  0  0  0  0  0  0  0  0
   -7.9140   -0.6346    0.0000 C   0  0  0  0  0  0  0  0  0  0  0  0
   -8.6640    0.6645    0.0000 N   0  0  0  0  0  0  0  0  0  0  0  0
   -7.9140    1.9635    0.0000 C   0  0  0  0  0  0  0  0  0  0  0  0
   -6.4140    1.9635    0.0000 C   0  0  0  0  0  0  0  0  0  0  0  0
   -5.6640    0.6645    0.0000 C   0  0  0  0  0  0  0  0  0  0  0  0
   -4.1640    0.6645    0.0000 C   0  0  0  0  0  0  0  0  0  0  0  0
   -3.4140    1.9635    0.0000 C   0  0  0  0  0  0  0  0  0  0  0  0
   -1.9140    1.9635    0.0000 C   0  0  0  0  0  0  0  0  0  0  0  0
   -1.0323    3.1771    0.0000 C   0  0  0  0  0  0  0  0  0  0  0  0
   -1.4958    4.6036    0.0000 C   0  0  0  0  0  0  0  0  0  0  0  0
   -0.4921    5.7184    0.0000 C   0  0  0  0  0  0  0  0  0  0  0  0
   -0.9556    7.1449    0.0000 C   0  0  0  0  0  0  0  0  0  0  0  0
   -2.4229    7.4568    0.0000 C   0  0  0  0  0  0  0  0  0  0  0  0
   -3.4266    6.3421    0.0000 C   0  0  0  0  0  0  0  0  0  0  0  0
   -2.9630    4.9155    0.0000 C   0  0  0  0  0  0  0  0  0  0  0  0
    0.3943    2.7135    0.0000 N   0  0  0  0  0  0  0  0  0  0  0  0
    0.3943    1.2135    0.0000 C   0  0  0  0  0  0  0  0  0  0  0  0
    1.2760    0.0000    0.0000 S   0  0  0  0  0  0  0  0  0  0  0  0
    0.3943   -1.2135    0.0000 C   0  0  0  0  0  0  0  0  0  0  0  0
   -1.0323   -0.7500    0.0000 C   0  0  0  0  0  0  0  0  0  0  0  0
   -1.0323    0.7500    0.0000 N   0  0  0  0  0  0  0  0  0  0  0  0
   -6.4140   -0.6346    0.0000 N   0  0  0  0  0  0  0  0  0  0  0  0
  1  2  1  0
  2  3  1  0
  2  4  1  0
  2  5  1  0
  5  6  2  0
  5  7  1  0
  7  8  1  0
  8  9  2  0
  9 10  1  0
 10 11  2  0
 11 12  1  0
 12 13  1  0
 13 14  2  0
 14 15  1  0
 15 16  2  0
 16 17  1  0
 17 18  2  0
 18 19  1  0
 19 20  2  0
 20 21  1  0
 21 22  2  0
 16 23  1  0
 23 24  2  0
 24 25  1  0
 25 26  1  0
 26 27  2  0
 27 28  1  0
 12 29  2  0
 29  8  1  0
 28 15  1  0
 22 17  1  0
 28 24  1  0
M  END
>  <Molecule ChEMBL ID>  (55) 
CHEMBL524708

>  <Smiles>  (55) 
CC(C)(C)C(=O)Nc1nccc(/C=C/c2c(-c3ccccc3)nc3sccn23)n1

>  <pChEMBL Value>  (55) 
4.02

>  <similarity>  (55) 
0.13953488372093023

$$$$

     RDKit          2D

 25 27  0  0  0  0  0  0  0  0999 V2000
   -0.7500   -3.8971    0.0000 O   0  0  0  0  0  0  0  0  0  0  0  0
    0.7500   -3.8971    0.0000 C   0  0  0  0  0  0  0  0  0  0  0  0
    1.5000   -2.5981    0.0000 N   0  0  0  0  0  0  0  0  0  0  0  0
    0.7500   -1.2990    0.0000 C   0  0  0  0  0  0  0  0  0  0  0  0
    1.5000    0.0000    0.0000 C   0  0  0  0  0  0  0  0  0  0  0  0
    0.7500    1.2990    0.0000 C   0  0  0  0  0  0  0  0  0  0  0  0
   -0.7500    1.2990    0.0000 C   0  0  0  0  0  0  0  0  0  0  0  0
   -1.5000    0.0000    0.0000 C   0  0  0  0  0  0  0  0  0  0  0  0
   -0.7500   -1.2990    0.0000 C   0  0  0  0  0  0  0  0  0  0  0  0
   -1.5000   -2.5981    0.0000 F   0  0  0  0  0  0  0  0  0  0  0  0
    1.5000   -5.1962    0.0000 C   0  0  0  0  0  0  0  0  0  0  0  0
    0.7500   -6.4952    0.0000 C   0  0  0  0  0  0  0  0  0  0  0  0
    1.5000   -7.7942    0.0000 C   0  0  0  0  0  0  0  0  0  0  0  0
    3.0000   -7.7942    0.0000 C   0  0  0  0  0  0  0  0  0  0  0  0
    3.7500   -6.4952    0.0000 C   0  0  0  0  0  0  0  0  0  0  0  0
    3.0000   -5.1962    0.0000 C   0  0  0  0  0  0  0  0  0  0  0  0
    3.7500   -3.8971    0.0000 N   0  0  0  0  0  0  0  0  0  0  0  0
    5.2500   -3.8971    0.0000 C   0  0  0  0  0  0  0  0  0  0  0  0
    6.0000   -2.5981    0.0000 C   0  0  0  0  0  0  0  0  0  0  0  0
    7.5000   -2.5981    0.0000 C   0  0  0  0  0  0  0  0  0  0  0  0
    8.2500   -1.2990    0.0000 C   0  0  0  0  0  0  0  0  0  0  0  0
    7.5000   -0.0000    0.0000 C   0  0  0  0  0  0  0  0  0  0  0  0
    8.2500    1.2990    0.0000 F   0  0  0  0  0  0  0  0  0  0  0  0
    6.0000   -0.0000    0.0000 C   0  0  0  0  0  0  0  0  0  0  0  0
    5.2500   -1.2990    0.0000 C   0  0  0  0  0  0  0  0  0  0  0  0
  1  2  2  0
  2  3  1  0
  3  4  1  0
  4  5  2  0
  5  6  1  0
  6  7  2  0
  7  8  1  0
  8  9  2  0
  9 10  1  0
  2 11  1  0
 11 12  2  0
 12 13  1  0
 13 14  2  0
 14 15  1  0
 15 16  2  0
 16 17  1  0
 17 18  1  0
 18 19  1  0
 19 20  2  0
 20 21  1  0
 21 22  2  0
 22 23  1  0
 22 24  1  0
 24 25  2  0
  9  4  1  0
 16 11  1  0
 25 19  1  0
M  END
>  <Molecule ChEMBL ID>  (56) 
CHEMBL101682

>  <Smiles>  (56) 
O=C(Nc1ccccc1F)c1ccccc1NCc1ccc(F)cc1

>  <pChEMBL Value>  (56) 
4.64

>  <similarity>  (56) 
0.25

$$$$

     RDKit          2D

 69 72  0  0  0  0  0  0  0  0999 V2000
    9.2580   -1.2990    0.0000 C   0  0  0  0  0  0  0  0  0  0  0  0
    7.7580   -1.2990    0.0000 C   0  0  0  0  0  0  0  0  0  0  0  0
    7.2305   -2.5417    0.0000 C   0  0  0  0  0  0  0  0  0  0  0  0
    7.0080    0.0000    0.0000 C   0  0  0  0  0  0  0  0  0  0  0  0
    5.5080    0.0000    0.0000 C   0  0  0  0  0  0  0  0  0  0  0  0
    5.3037    1.4860    0.0000 N   0  0  0  0  0  0  0  0  0  0  0  0
    4.7061    2.8618    0.0000 C   0  0  0  0  0  0  0  0  0  0  0  0
    5.9877    3.6412    0.0000 O   0  0  0  0  0  0  0  0  0  0  0  0
    3.7595    4.0254    0.0000 C   0  0  0  0  0  0  0  0  0  0  0  0
    2.5340    4.8904    0.0000 N   0  0  0  0  0  0  0  0  0  0  0  0
    1.1206    5.3928    0.0000 C   0  0  0  0  0  0  0  0  0  0  0  0
    1.4258    6.8614    0.0000 O   0  0  0  0  0  0  0  0  0  0  0  0
   -0.3759    5.4951    0.0000 C   0  0  0  0  0  0  0  0  0  0  0  0
   -0.4782    6.9916    0.0000 C   0  0  0  0  0  0  0  0  0  0  0  0
    0.7666    7.8285    0.0000 C   0  0  0  0  0  0  0  0  0  0  0  0
    0.6642    9.3250    0.0000 C   0  0  0  0  0  0  0  0  0  0  0  0
   -0.6830    9.9846    0.0000 O   0  0  0  0  0  0  0  0  0  0  0  0
    1.9091   10.1619    0.0000 O   0  0  0  0  0  0  0  0  0  0  0  0
   -1.8445    5.1899    0.0000 N   0  0  0  0  0  0  0  0  0  0  0  0
   -3.1763    4.4998    0.0000 C   0  0  0  0  0  0  0  0  0  0  0  0
   -3.6160    5.6325    0.0000 O   0  0  0  0  0  0  0  0  0  0  0  0
   -4.2726    3.4760    0.0000 C   0  0  0  0  0  0  0  0  0  0  0  0
   -5.4362    4.4226    0.0000 C   0  0  0  0  0  0  0  0  0  0  0  0
   -5.1981    5.9036    0.0000 C   0  0  0  0  0  0  0  0  0  0  0  0
   -3.7965    6.4380    0.0000 C   0  0  0  0  0  0  0  0  0  0  0  0
   -3.5585    7.9190    0.0000 C   0  0  0  0  0  0  0  0  0  0  0  0
   -2.1569    8.4534    0.0000 O   0  0  0  0  0  0  0  0  0  0  0  0
   -4.7221    8.8656    0.0000 O   0  0  0  0  0  0  0  0  0  0  0  0
   -6.1237    8.3313    0.0000 C   0  0  0  0  0  0  0  0  0  0  0  0
   -7.2872    9.2779    0.0000 C   0  0  0  0  0  0  0  0  0  0  0  0
   -8.6888    8.7435    0.0000 C   0  0  0  0  0  0  0  0  0  0  0  0
   -9.8524    9.6902    0.0000 O   0  0  0  0  0  0  0  0  0  0  0  0
   -8.9269    7.2625    0.0000 C   0  0  0  0  0  0  0  0  0  0  0  0
   -7.7633    6.3159    0.0000 C   0  0  0  0  0  0  0  0  0  0  0  0
   -6.3617    6.8503    0.0000 C   0  0  0  0  0  0  0  0  0  0  0  0
   -5.0520    2.1944    0.0000 N   0  0  0  0  0  0  0  0  0  0  0  0
   -5.4567    0.7500    0.0000 C   0  0  0  0  0  0  0  0  0  0  0  0
   -6.9427    0.9542    0.0000 O   0  0  0  0  0  0  0  0  0  0  0  0
   -5.4567   -0.7500    0.0000 C   0  0  0  0  0  0  0  0  0  0  0  0
   -6.9427   -0.9542    0.0000 C   0  0  0  0  0  0  0  0  0  0  0  0
   -7.8626    0.2306    0.0000 C   0  0  0  0  0  0  0  0  0  0  0  0
   -9.3486    0.0263    0.0000 C   0  0  0  0  0  0  0  0  0  0  0  0
  -10.2685    1.2111    0.0000 C   0  0  0  0  0  0  0  0  0  0  0  0
  -11.7545    1.0069    0.0000 C   0  0  0  0  0  0  0  0  0  0  0  0
  -12.3207   -0.3822    0.0000 C   0  0  0  0  0  0  0  0  0  0  0  0
  -11.4008   -1.5670    0.0000 C   0  0  0  0  0  0  0  0  0  0  0  0
   -9.9147   -1.3627    0.0000 C   0  0  0  0  0  0  0  0  0  0  0  0
   -5.0520   -2.1944    0.0000 N   0  0  0  0  0  0  0  0  0  0  0  0
   -4.2726   -3.4760    0.0000 C   0  0  0  0  0  0  0  0  0  0  0  0
   -5.4362   -4.4226    0.0000 O   0  0  0  0  0  0  0  0  0  0  0  0
   -3.1763   -4.4998    0.0000 C   0  0  0  0  0  0  0  0  0  0  0  0
   -1.8445   -5.1899    0.0000 C   0  0  0  0  0  0  0  0  0  0  0  0
   -0.3759   -5.4951    0.0000 C   0  0  0  0  0  0  0  0  0  0  0  0
   -0.4782   -6.9916    0.0000 C   0  0  0  0  0  0  0  0  0  0  0  0
   -1.8254   -7.6512    0.0000 C   0  0  0  0  0  0  0  0  0  0  0  0
   -1.9278   -9.1477    0.0000 N   0  0  0  0  0  0  0  0  0  0  0  0
   -3.0703   -6.8143    0.0000 O   0  0  0  0  0  0  0  0  0  0  0  0
    1.1206   -5.3928    0.0000 N   0  0  0  0  0  0  0  0  0  0  0  0
    2.5340   -4.8904    0.0000 C   0  0  0  0  0  0  0  0  0  0  0  0
    3.2241   -6.2223    0.0000 O   0  0  0  0  0  0  0  0  0  0  0  0
    3.7595   -4.0254    0.0000 C   0  0  0  0  0  0  0  0  0  0  0  0
    4.7833   -5.1217    0.0000 C   0  0  0  0  0  0  0  0  0  0  0  0
    4.3458   -6.5565    0.0000 C   0  0  0  0  0  0  0  0  0  0  0  0
    5.3697   -7.6527    0.0000 C   0  0  0  0  0  0  0  0  0  0  0  0
    6.8310   -7.3142    0.0000 O   0  0  0  0  0  0  0  0  0  0  0  0
    4.9322   -9.0875    0.0000 O   0  0  0  0  0  0  0  0  0  0  0  0
    4.7061   -2.8618    0.0000 N   0  0  0  0  0  0  0  0  0  0  0  0
    5.3037   -1.4860    0.0000 C   0  0  0  0  0  0  0  0  0  0  0  0
    6.5496   -2.0060    0.0000 O   0  0  0  0  0  0  0  0  0  0  0  0
  1  2  1  0
  2  3  1  0
  2  4  1  0
  5  4  1  1
  5  6  1  0
  6  7  1  0
  7  8  2  0
  7  9  1  0
  9 10  1  0
 10 11  1  0
 11 12  2  0
 11 13  1  0
 13 14  1  1
 14 15  1  0
 15 16  1  0
 16 17  2  0
 16 18  1  0
 13 19  1  0
 19 20  1  0
 20 21  2  0
 20 22  1  0
 22 23  1  1
 23 24  1  0
 24 25  2  0
 25 26  1  0
 26 27  2  0
 26 28  1  0
 28 29  1  0
 29 30  2  0
 30 31  1  0
 31 32  1  0
 31 33  2  0
 33 34  1  0
 34 35  2  0
 22 36  1  0
 36 37  1  0
 37 38  2  0
 37 39  1  0
 39 40  1  1
 40 41  1  0
 41 42  1  0
 42 43  2  0
 43 44  1  0
 44 45  2  0
 45 46  1  0
 46 47  2  0
 39 48  1  0
 48 49  1  0
 49 50  2  0
 49 51  1  0
 51 52  1  0
 52 53  1  0
 53 54  1  6
 54 55  1  0
 55 56  1  0
 55 57  2  0
 53 58  1  0
 58 59  1  0
 59 60  2  0
 59 61  1  0
 61 62  1  1
 62 63  1  0
 63 64  1  0
 64 65  2  0
 64 66  1  0
 61 67  1  0
 67 68  1  0
 68 69  2  0
 68  5  1  0
 35 24  1  0
 47 42  1  0
 35 29  1  0
M  END
>  <Molecule ChEMBL ID>  (57) 
CHEMBL410408

>  <Smiles>  (57) 
CC(C)C[C@@H]1NC(=O)CNC(=O)[C@H](CCC(=O)O)NC(=O)[C@H](Cc2cc(=O)oc3cc(O)ccc23)NC(=O)[C@H](CCc2ccccc2)NC(=O)CC[C@@H](CC(N)=O)NC(=O)[C@H](CCC(=O)O)NC1=O

>  <pChEMBL Value>  (57) 
4.71

>  <similarity>  (57) 
0.125

$$$$

     RDKit          2D

 29 33  0  0  0  0  0  0  0  0999 V2000
   -4.3727  -10.3478    0.0000 N   0  0  0  0  0  0  0  0  0  0  0  0
   -4.6845   -8.8806    0.0000 C   0  0  0  0  0  0  0  0  0  0  0  0
   -6.1111   -8.4171    0.0000 N   0  0  0  0  0  0  0  0  0  0  0  0
   -6.4230   -6.9498    0.0000 C   0  0  0  0  0  0  0  0  0  0  0  0
   -7.8496   -6.4863    0.0000 N   0  0  0  0  0  0  0  0  0  0  0  0
   -8.9643   -7.4900    0.0000 C   0  0  0  0  0  0  0  0  0  0  0  0
  -10.3909   -7.0265    0.0000 C   0  0  0  0  0  0  0  0  0  0  0  0
  -11.5056   -8.0302    0.0000 C   0  0  0  0  0  0  0  0  0  0  0  0
  -11.1937   -9.4974    0.0000 C   0  0  0  0  0  0  0  0  0  0  0  0
   -9.7671   -9.9609    0.0000 C   0  0  0  0  0  0  0  0  0  0  0  0
   -9.4553  -11.4282    0.0000 Br  0  0  0  0  0  0  0  0  0  0  0  0
   -8.6524   -8.9572    0.0000 C   0  0  0  0  0  0  0  0  0  0  0  0
   -5.3083   -5.9462    0.0000 C   0  0  0  0  0  0  0  0  0  0  0  0
   -5.3083   -4.4462    0.0000 C   0  0  0  0  0  0  0  0  0  0  0  0
   -3.8817   -3.9826    0.0000 C   0  0  0  0  0  0  0  0  0  0  0  0
   -3.0000   -5.1962    0.0000 N   0  0  0  0  0  0  0  0  0  0  0  0
   -1.5000   -5.1962    0.0000 C   0  0  0  0  0  0  0  0  0  0  0  0
   -0.7500   -3.8971    0.0000 C   0  0  0  0  0  0  0  0  0  0  0  0
    0.7500   -3.8971    0.0000 C   0  0  0  0  0  0  0  0  0  0  0  0
    1.5000   -2.5981    0.0000 C   0  0  0  0  0  0  0  0  0  0  0  0
    0.7500   -1.2990    0.0000 C   0  0  0  0  0  0  0  0  0  0  0  0
    1.5000    0.0000    0.0000 C   0  0  0  0  0  0  0  0  0  0  0  0
    0.7500    1.2990    0.0000 C   0  0  0  0  0  0  0  0  0  0  0  0
   -0.7500    1.2990    0.0000 C   0  0  0  0  0  0  0  0  0  0  0  0
   -1.5000    0.0000    0.0000 C   0  0  0  0  0  0  0  0  0  0  0  0
   -0.7500   -1.2990    0.0000 C   0  0  0  0  0  0  0  0  0  0  0  0
   -1.5000   -2.5981    0.0000 C   0  0  0  0  0  0  0  0  0  0  0  0
   -3.8817   -6.4097    0.0000 C   0  0  0  0  0  0  0  0  0  0  0  0
   -3.5698   -7.8769    0.0000 N   0  0  0  0  0  0  0  0  0  0  0  0
  1  2  1  0
  2  3  2  0
  3  4  1  0
  4  5  1  0
  5  6  1  0
  6  7  2  0
  7  8  1  0
  8  9  2  0
  9 10  1  0
 10 11  1  0
 10 12  2  0
  4 13  2  0
 13 14  1  0
 14 15  2  0
 15 16  1  0
 16 17  1  0
 17 18  1  0
 18 19  2  0
 19 20  1  0
 20 21  2  0
 21 22  1  0
 22 23  2  0
 23 24  1  0
 24 25  2  0
 25 26  1  0
 26 27  2  0
 16 28  1  0
 28 29  2  0
 29  2  1  0
 12  6  1  0
 28 13  1  0
 27 18  1  0
 26 21  1  0
M  END
>  <Molecule ChEMBL ID>  (58) 
CHEMBL1956896

>  <Smiles>  (58) 
Nc1nc(Nc2cccc(Br)c2)c2ccn(Cc3ccc4ccccc4c3)c2n1

>  <pChEMBL Value>  (58) 
4.29

>  <similarity>  (58) 
0.10588235294117647

$$$$

     RDKit          2D

 29 33  0  0  0  0  0  0  0  0999 V2000
   -5.6260  -10.9888    0.0000 C   0  0  0  0  0  0  0  0  0  0  0  0
   -5.3142   -9.5216    0.0000 C   0  0  0  0  0  0  0  0  0  0  0  0
   -3.8876   -9.0580    0.0000 O   0  0  0  0  0  0  0  0  0  0  0  0
   -3.5757   -7.5908    0.0000 C   0  0  0  0  0  0  0  0  0  0  0  0
   -4.6904   -6.5871    0.0000 C   0  0  0  0  0  0  0  0  0  0  0  0
   -4.3786   -5.1199    0.0000 C   0  0  0  0  0  0  0  0  0  0  0  0
   -2.9520   -4.6564    0.0000 C   0  0  0  0  0  0  0  0  0  0  0  0
   -2.6401   -3.1891    0.0000 C   0  0  0  0  0  0  0  0  0  0  0  0
   -1.2135   -2.7256    0.0000 C   0  0  0  0  0  0  0  0  0  0  0  0
    0.0000   -3.6073    0.0000 C   0  0  0  0  0  0  0  0  0  0  0  0
    0.0000   -5.1073    0.0000 O   0  0  0  0  0  0  0  0  0  0  0  0
    1.2135   -2.7256    0.0000 N   0  0  0  0  0  0  0  0  0  0  0  0
    0.7500   -1.2990    0.0000 C   0  0  0  0  0  0  0  0  0  0  0  0
    1.5000    0.0000    0.0000 C   0  0  0  0  0  0  0  0  0  0  0  0
    0.7500    1.2990    0.0000 C   0  0  0  0  0  0  0  0  0  0  0  0
   -0.7500    1.2990    0.0000 C   0  0  0  0  0  0  0  0  0  0  0  0
   -1.5000    0.0000    0.0000 C   0  0  0  0  0  0  0  0  0  0  0  0
   -0.7500   -1.2990    0.0000 C   0  0  0  0  0  0  0  0  0  0  0  0
   -3.7548   -2.1855    0.0000 C   0  0  0  0  0  0  0  0  0  0  0  0
   -3.5980   -0.6937    0.0000 N   0  0  0  0  0  0  0  0  0  0  0  0
   -4.9684   -0.0836    0.0000 C   0  0  0  0  0  0  0  0  0  0  0  0
   -5.4319    1.3430    0.0000 C   0  0  0  0  0  0  0  0  0  0  0  0
   -6.8991    1.6549    0.0000 C   0  0  0  0  0  0  0  0  0  0  0  0
   -7.9028    0.5402    0.0000 C   0  0  0  0  0  0  0  0  0  0  0  0
   -7.4393   -0.8864    0.0000 C   0  0  0  0  0  0  0  0  0  0  0  0
   -5.9720   -1.1983    0.0000 C   0  0  0  0  0  0  0  0  0  0  0  0
   -5.2220   -2.4973    0.0000 N   0  0  0  0  0  0  0  0  0  0  0  0
   -1.8373   -5.6601    0.0000 C   0  0  0  0  0  0  0  0  0  0  0  0
   -2.1491   -7.1273    0.0000 C   0  0  0  0  0  0  0  0  0  0  0  0
  1  2  1  0
  2  3  1  0
  3  4  1  0
  4  5  2  0
  5  6  1  0
  6  7  2  0
  7  8  1  0
  8  9  2  3
  9 10  1  0
 10 11  2  0
 10 12  1  0
 12 13  1  0
 13 14  2  0
 14 15  1  0
 15 16  2  0
 16 17  1  0
 17 18  2  0
  8 19  1  0
 19 20  2  0
 20 21  1  0
 21 22  2  0
 22 23  1  0
 23 24  2  0
 24 25  1  0
 25 26  2  0
 26 27  1  0
  7 28  1  0
 28 29  2  0
 29  4  1  0
 18  9  1  0
 27 19  1  0
 18 13  1  0
 26 21  1  0
M  END
>  <Molecule ChEMBL ID>  (59) 
CHEMBL2086731

>  <Smiles>  (59) 
CCOc1ccc(C(=C2C(=O)Nc3ccccc32)c2nc3ccccc3[nH]2)cc1

>  <pChEMBL Value>  (59) 
4.98

>  <similarity>  (59) 
0.16049382716049382

$$$$

     RDKit          2D

 24 25  0  0  0  0  0  0  0  0999 V2000
    3.7500   -1.2990    0.0000 C   0  0  0  0  0  0  0  0  0  0  0  0
    3.0000    0.0000    0.0000 O   0  0  0  0  0  0  0  0  0  0  0  0
    1.5000    0.0000    0.0000 C   0  0  0  0  0  0  0  0  0  0  0  0
    0.7500   -1.2990    0.0000 C   0  0  0  0  0  0  0  0  0  0  0  0
   -0.7500   -1.2990    0.0000 C   0  0  0  0  0  0  0  0  0  0  0  0
   -1.3361   -2.6798    0.0000 O   0  0  0  0  0  0  0  0  0  0  0  0
   -1.5000    0.0000    0.0000 C   0  0  0  0  0  0  0  0  0  0  0  0
   -0.7500    1.2990    0.0000 C   0  0  0  0  0  0  0  0  0  0  0  0
    0.7500    1.2990    0.0000 C   0  0  0  0  0  0  0  0  0  0  0  0
   -1.2980    2.6953    0.0000 C   0  0  0  0  0  0  0  0  0  0  0  0
   -1.1859    4.1912    0.0000 C   0  0  0  0  0  0  0  0  0  0  0  0
   -2.2855    5.2114    0.0000 C   0  0  0  0  0  0  0  0  0  0  0  0
   -3.7189    5.6535    0.0000 C   0  0  0  0  0  0  0  0  0  0  0  0
   -5.2021    5.4300    0.0000 C   0  0  0  0  0  0  0  0  0  0  0  0
   -6.4415    4.5850    0.0000 C   0  0  0  0  0  0  0  0  0  0  0  0
   -7.8748    5.0271    0.0000 O   0  0  0  0  0  0  0  0  0  0  0  0
   -6.5536    3.0892    0.0000 C   0  0  0  0  0  0  0  0  0  0  0  0
   -7.3036    1.7902    0.0000 C   0  0  0  0  0  0  0  0  0  0  0  0
   -6.7555    0.3938    0.0000 C   0  0  0  0  0  0  0  0  0  0  0  0
   -5.6560   -0.6264    0.0000 C   0  0  0  0  0  0  0  0  0  0  0  0
   -6.4060   -1.9254    0.0000 C   0  0  0  0  0  0  0  0  0  0  0  0
   -4.2226   -1.0685    0.0000 O   0  0  0  0  0  0  0  0  0  0  0  0
   -2.7394   -0.8450    0.0000 C   0  0  0  0  0  0  0  0  0  0  0  0
   -2.3656   -2.2977    0.0000 O   0  0  0  0  0  0  0  0  0  0  0  0
  1  2  1  0
  2  3  1  0
  3  4  2  0
  4  5  1  0
  5  6  1  0
  5  7  2  0
  7  8  1  0
  8  9  2  0
  8 10  1  0
 10 11  2  0
 11 12  1  0
 12 13  1  0
 13 14  1  0
 14 15  1  0
 15 16  2  0
 15 17  1  0
 17 18  2  0
 18 19  1  0
 19 20  1  0
 20 21  1  1
 20 22  1  0
 22 23  1  0
 23 24  2  0
  9  3  1  0
 23  7  1  0
M  END
>  <Molecule ChEMBL ID>  (60) 
CHEMBL1668418

>  <Smiles>  (60) 
COc1cc(O)c2c(c1)/C=C/CCCC(=O)/C=C/C[C@H](C)OC2=O

>  <pChEMBL Value>  (60) 
4.29

>  <similarity>  (60) 
0.10843373493975904

$$$$

     RDKit          2D

 27 30  0  0  0  0  0  0  0  0999 V2000
    3.0000    0.0000    0.0000 N   0  0  0  0  0  0  0  0  0  0  0  0
    1.5000    0.0000    0.0000 C   0  0  0  0  0  0  0  0  0  0  0  0
    0.7500   -1.2990    0.0000 N   0  0  0  0  0  0  0  0  0  0  0  0
   -0.7500   -1.2990    0.0000 C   0  0  0  0  0  0  0  0  0  0  0  0
   -1.5000    0.0000    0.0000 C   0  0  0  0  0  0  0  0  0  0  0  0
   -0.7500    1.2990    0.0000 C   0  0  0  0  0  0  0  0  0  0  0  0
   -1.5000    2.5981    0.0000 C   0  0  0  0  0  0  0  0  0  0  0  0
   -0.7500    3.8971    0.0000 C   0  0  0  0  0  0  0  0  0  0  0  0
   -1.5000    5.1962    0.0000 C   0  0  0  0  0  0  0  0  0  0  0  0
   -2.9918    5.3529    0.0000 C   0  0  0  0  0  0  0  0  0  0  0  0
   -3.9955    4.2382    0.0000 C   0  0  0  0  0  0  0  0  0  0  0  0
   -5.4627    4.5501    0.0000 C   0  0  0  0  0  0  0  0  0  0  0  0
   -6.4664    3.4354    0.0000 C   0  0  0  0  0  0  0  0  0  0  0  0
   -6.0029    2.0088    0.0000 C   0  0  0  0  0  0  0  0  0  0  0  0
   -4.5356    1.6969    0.0000 C   0  0  0  0  0  0  0  0  0  0  0  0
   -3.5320    2.8116    0.0000 C   0  0  0  0  0  0  0  0  0  0  0  0
   -3.3037    6.8202    0.0000 N   0  0  0  0  0  0  0  0  0  0  0  0
   -2.0046    7.5702    0.0000 C   0  0  0  0  0  0  0  0  0  0  0  0
   -0.8899    6.5665    0.0000 N   0  0  0  0  0  0  0  0  0  0  0  0
    0.5773    6.8783    0.0000 C   0  0  0  0  0  0  0  0  0  0  0  0
    1.0409    8.3049    0.0000 C   0  0  0  0  0  0  0  0  0  0  0  0
    2.5081    8.6168    0.0000 C   0  0  0  0  0  0  0  0  0  0  0  0
    2.9716   10.0434    0.0000 C   0  0  0  0  0  0  0  0  0  0  0  0
    1.9679   11.1581    0.0000 C   0  0  0  0  0  0  0  0  0  0  0  0
    0.5007   10.8462    0.0000 C   0  0  0  0  0  0  0  0  0  0  0  0
    0.0372    9.4196    0.0000 C   0  0  0  0  0  0  0  0  0  0  0  0
    0.7500    1.2990    0.0000 N   0  0  0  0  0  0  0  0  0  0  0  0
  1  2  1  0
  2  3  2  0
  3  4  1  0
  4  5  2  0
  5  6  1  0
  6  7  1  0
  7  8  2  0
  8  9  1  0
  9 10  2  0
 10 11  1  0
 11 12  2  0
 12 13  1  0
 13 14  2  0
 14 15  1  0
 15 16  2  0
 10 17  1  0
 17 18  2  0
 18 19  1  0
 19 20  1  0
 20 21  1  0
 21 22  2  0
 22 23  1  0
 23 24  2  0
 24 25  1  0
 25 26  2  0
  6 27  2  0
 27  2  1  0
 19  9  1  0
 26 21  1  0
 16 11  1  0
M  END
>  <Molecule ChEMBL ID>  (61) 
CHEMBL499891

>  <Smiles>  (61) 
Nc1nccc(/C=C/c2c(-c3ccccc3)ncn2Cc2ccccc2)n1

>  <pChEMBL Value>  (61) 
4.51

>  <similarity>  (61) 
0.07407407407407407

$$$$

     RDKit          2D

 28 31  0  0  0  0  0  0  0  0999 V2000
   -2.9499    4.2246    0.0000 N   0  0  0  0  0  0  0  0  0  0  0  0
   -1.8351    3.2209    0.0000 C   0  0  0  0  0  0  0  0  0  0  0  0
   -0.4086    3.6844    0.0000 N   0  0  0  0  0  0  0  0  0  0  0  0
    0.7062    2.6807    0.0000 C   0  0  0  0  0  0  0  0  0  0  0  0
    2.1328    3.1443    0.0000 N   0  0  0  0  0  0  0  0  0  0  0  0
    2.4446    4.6115    0.0000 C   0  0  0  0  0  0  0  0  0  0  0  0
    3.8712    5.0750    0.0000 C   0  0  0  0  0  0  0  0  0  0  0  0
    4.1831    6.5422    0.0000 C   0  0  0  0  0  0  0  0  0  0  0  0
    3.0684    7.5459    0.0000 C   0  0  0  0  0  0  0  0  0  0  0  0
    3.3802    9.0132    0.0000 Cl  0  0  0  0  0  0  0  0  0  0  0  0
    1.6418    7.0824    0.0000 C   0  0  0  0  0  0  0  0  0  0  0  0
    1.3299    5.6152    0.0000 C   0  0  0  0  0  0  0  0  0  0  0  0
   -0.0967    5.1517    0.0000 F   0  0  0  0  0  0  0  0  0  0  0  0
    0.3943    1.2135    0.0000 C   0  0  0  0  0  0  0  0  0  0  0  0
    1.2760    0.0000    0.0000 C   0  0  0  0  0  0  0  0  0  0  0  0
    0.3943   -1.2135    0.0000 C   0  0  0  0  0  0  0  0  0  0  0  0
    0.8578   -2.6401    0.0000 C   0  0  0  0  0  0  0  0  0  0  0  0
   -0.1459   -3.7548    0.0000 C   0  0  0  0  0  0  0  0  0  0  0  0
   -1.6131   -3.4430    0.0000 C   0  0  0  0  0  0  0  0  0  0  0  0
   -2.6168   -4.5577    0.0000 C   0  0  0  0  0  0  0  0  0  0  0  0
   -2.1533   -5.9843    0.0000 C   0  0  0  0  0  0  0  0  0  0  0  0
   -3.1570   -7.0990    0.0000 Cl  0  0  0  0  0  0  0  0  0  0  0  0
   -0.6860   -6.2961    0.0000 C   0  0  0  0  0  0  0  0  0  0  0  0
    0.3177   -5.1814    0.0000 C   0  0  0  0  0  0  0  0  0  0  0  0
    1.7849   -5.4933    0.0000 Cl  0  0  0  0  0  0  0  0  0  0  0  0
   -1.0323   -0.7500    0.0000 N   0  0  0  0  0  0  0  0  0  0  0  0
   -1.0323    0.7500    0.0000 C   0  0  0  0  0  0  0  0  0  0  0  0
   -2.1470    1.7537    0.0000 N   0  0  0  0  0  0  0  0  0  0  0  0
  1  2  1  0
  2  3  2  0
  3  4  1  0
  4  5  1  0
  5  6  1  0
  6  7  2  0
  7  8  1  0
  8  9  2  0
  9 10  1  0
  9 11  1  0
 11 12  2  0
 12 13  1  0
  4 14  2  0
 14 15  1  0
 15 16  2  0
 16 17  1  0
 17 18  1  0
 18 19  2  0
 19 20  1  0
 20 21  2  0
 21 22  1  0
 21 23  1  0
 23 24  2  0
 24 25  1  0
 16 26  1  0
 26 27  1  0
 27 28  2  0
 28  2  1  0
 12  6  1  0
 27 14  1  0
 24 18  1  0
M  END
>  <Molecule ChEMBL ID>  (62) 
CHEMBL1095130

>  <Smiles>  (62) 
Nc1nc(Nc2ccc(Cl)cc2F)c2cc(Cc3ccc(Cl)cc3Cl)[nH]c2n1

>  <pChEMBL Value>  (62) 
4.15

>  <similarity>  (62) 
0.10843373493975904

$$$$

     RDKit          2D

 23 26  0  0  0  0  0  0  0  0999 V2000
   -8.6640   -1.9336    0.0000 Cl  0  0  0  0  0  0  0  0  0  0  0  0
   -7.9140   -0.6346    0.0000 C   0  0  0  0  0  0  0  0  0  0  0  0
   -8.6640    0.6645    0.0000 N   0  0  0  0  0  0  0  0  0  0  0  0
   -7.9140    1.9635    0.0000 C   0  0  0  0  0  0  0  0  0  0  0  0
   -6.4140    1.9635    0.0000 C   0  0  0  0  0  0  0  0  0  0  0  0
   -5.6640    0.6645    0.0000 C   0  0  0  0  0  0  0  0  0  0  0  0
   -4.1640    0.6645    0.0000 C   0  0  0  0  0  0  0  0  0  0  0  0
   -3.4140    1.9635    0.0000 C   0  0  0  0  0  0  0  0  0  0  0  0
   -1.9140    1.9635    0.0000 C   0  0  0  0  0  0  0  0  0  0  0  0
   -1.0323    3.1771    0.0000 C   0  0  0  0  0  0  0  0  0  0  0  0
   -1.4958    4.6036    0.0000 C   0  0  0  0  0  0  0  0  0  0  0  0
   -0.4921    5.7184    0.0000 C   0  0  0  0  0  0  0  0  0  0  0  0
   -0.9556    7.1449    0.0000 C   0  0  0  0  0  0  0  0  0  0  0  0
   -2.4229    7.4568    0.0000 C   0  0  0  0  0  0  0  0  0  0  0  0
   -3.4266    6.3421    0.0000 C   0  0  0  0  0  0  0  0  0  0  0  0
   -2.9630    4.9155    0.0000 C   0  0  0  0  0  0  0  0  0  0  0  0
    0.3943    2.7135    0.0000 N   0  0  0  0  0  0  0  0  0  0  0  0
    0.3943    1.2135    0.0000 C   0  0  0  0  0  0  0  0  0  0  0  0
    1.2760    0.0000    0.0000 S   0  0  0  0  0  0  0  0  0  0  0  0
    0.3943   -1.2135    0.0000 C   0  0  0  0  0  0  0  0  0  0  0  0
   -1.0323   -0.7500    0.0000 C   0  0  0  0  0  0  0  0  0  0  0  0
   -1.0323    0.7500    0.0000 N   0  0  0  0  0  0  0  0  0  0  0  0
   -6.4140   -0.6346    0.0000 N   0  0  0  0  0  0  0  0  0  0  0  0
  1  2  1  0
  2  3  2  0
  3  4  1  0
  4  5  2  0
  5  6  1  0
  6  7  1  0
  7  8  2  0
  8  9  1  0
  9 10  2  0
 10 11  1  0
 11 12  2  0
 12 13  1  0
 13 14  2  0
 14 15  1  0
 15 16  2  0
 10 17  1  0
 17 18  2  0
 18 19  1  0
 19 20  1  0
 20 21  2  0
 21 22  1  0
  6 23  2  0
 23  2  1  0
 22  9  1  0
 16 11  1  0
 22 18  1  0
M  END
>  <Molecule ChEMBL ID>  (63) 
CHEMBL501444

>  <Smiles>  (63) 
Clc1nccc(/C=C/c2c(-c3ccccc3)nc3sccn23)n1

>  <pChEMBL Value>  (63) 
4.18

>  <similarity>  (63) 
0.07317073170731707

$$$$

     RDKit          2D

 20 22  0  0  0  0  0  0  0  0999 V2000
    3.0000    0.0000    0.0000 N   0  0  0  0  0  0  0  0  0  0  0  0
    1.5000    0.0000    0.0000 C   0  0  0  0  0  0  0  0  0  0  0  0
    0.7500   -1.2990    0.0000 N   0  0  0  0  0  0  0  0  0  0  0  0
   -0.7500   -1.2990    0.0000 C   0  0  0  0  0  0  0  0  0  0  0  0
   -1.5000    0.0000    0.0000 C   0  0  0  0  0  0  0  0  0  0  0  0
   -0.7500    1.2990    0.0000 C   0  0  0  0  0  0  0  0  0  0  0  0
   -1.5000    2.5981    0.0000 C   0  0  0  0  0  0  0  0  0  0  0  0
   -0.7500    3.8971    0.0000 C   0  0  0  0  0  0  0  0  0  0  0  0
   -1.5000    5.1962    0.0000 C   0  0  0  0  0  0  0  0  0  0  0  0
   -2.9918    5.3529    0.0000 N   0  0  0  0  0  0  0  0  0  0  0  0
   -3.3037    6.8202    0.0000 C   0  0  0  0  0  0  0  0  0  0  0  0
   -2.0046    7.5702    0.0000 N   0  0  0  0  0  0  0  0  0  0  0  0
   -0.8899    6.5665    0.0000 C   0  0  0  0  0  0  0  0  0  0  0  0
    0.5773    6.8783    0.0000 C   0  0  0  0  0  0  0  0  0  0  0  0
    1.5810    5.7636    0.0000 C   0  0  0  0  0  0  0  0  0  0  0  0
    3.0482    6.0755    0.0000 C   0  0  0  0  0  0  0  0  0  0  0  0
    3.5118    7.5021    0.0000 C   0  0  0  0  0  0  0  0  0  0  0  0
    2.5081    8.6168    0.0000 C   0  0  0  0  0  0  0  0  0  0  0  0
    1.0409    8.3049    0.0000 C   0  0  0  0  0  0  0  0  0  0  0  0
    0.7500    1.2990    0.0000 N   0  0  0  0  0  0  0  0  0  0  0  0
  1  2  1  0
  2  3  2  0
  3  4  1  0
  4  5  2  0
  5  6  1  0
  6  7  1  0
  7  8  2  0
  8  9  1  0
  9 10  1  0
 10 11  1  0
 11 12  2  0
 12 13  1  0
 13 14  1  0
 14 15  2  0
 15 16  1  0
 16 17  2  0
 17 18  1  0
 18 19  2  0
  6 20  2  0
 20  2  1  0
 13  9  2  0
 19 14  1  0
M  END
>  <Molecule ChEMBL ID>  (64) 
CHEMBL502279

>  <Smiles>  (64) 
Nc1nccc(/C=C/c2[nH]cnc2-c2ccccc2)n1

>  <pChEMBL Value>  (64) 
4.17

>  <similarity>  (64) 
0.08

$$$$

     RDKit          2D

 37 42  0  0  0  0  0  0  0  0999 V2000
    8.0880   -9.5281    0.0000 C   0  0  0  0  0  0  0  0  0  0  0  0
    8.3999  -10.9953    0.0000 C   0  0  0  0  0  0  0  0  0  0  0  0
    9.8265  -11.4588    0.0000 C   0  0  0  0  0  0  0  0  0  0  0  0
   10.1383  -12.9261    0.0000 C   0  0  0  0  0  0  0  0  0  0  0  0
    9.0236  -13.9298    0.0000 C   0  0  0  0  0  0  0  0  0  0  0  0
    7.5970  -13.4662    0.0000 C   0  0  0  0  0  0  0  0  0  0  0  0
    7.2852  -11.9990    0.0000 C   0  0  0  0  0  0  0  0  0  0  0  0
    5.8586  -11.5355    0.0000 N   0  0  0  0  0  0  0  0  0  0  0  0
    5.5467  -10.0683    0.0000 C   0  0  0  0  0  0  0  0  0  0  0  0
    6.6614   -9.0646    0.0000 O   0  0  0  0  0  0  0  0  0  0  0  0
    4.1201   -9.6047    0.0000 N   0  0  0  0  0  0  0  0  0  0  0  0
    3.8083   -8.1375    0.0000 C   0  0  0  0  0  0  0  0  0  0  0  0
    2.3817   -7.6740    0.0000 C   0  0  0  0  0  0  0  0  0  0  0  0
    1.1682   -8.5557    0.0000 C   0  0  0  0  0  0  0  0  0  0  0  0
   -0.0454   -7.6740    0.0000 C   0  0  0  0  0  0  0  0  0  0  0  0
    0.4182   -6.2474    0.0000 C   0  0  0  0  0  0  0  0  0  0  0  0
   -0.4635   -5.0339    0.0000 C   0  0  0  0  0  0  0  0  0  0  0  0
   -1.9635   -5.0339    0.0000 N   0  0  0  0  0  0  0  0  0  0  0  0
   -2.4271   -3.6073    0.0000 N   0  0  0  0  0  0  0  0  0  0  0  0
   -1.2135   -2.7256    0.0000 C   0  0  0  0  0  0  0  0  0  0  0  0
   -0.0000   -3.6073    0.0000 C   0  0  0  0  0  0  0  0  0  0  0  0
    1.2135   -2.7256    0.0000 C   0  0  0  0  0  0  0  0  0  0  0  0
    0.7500   -1.2990    0.0000 C   0  0  0  0  0  0  0  0  0  0  0  0
    1.5000    0.0000    0.0000 C   0  0  0  0  0  0  0  0  0  0  0  0
    0.7500    1.2990    0.0000 C   0  0  0  0  0  0  0  0  0  0  0  0
    1.5000    2.5981    0.0000 C   0  0  0  0  0  0  0  0  0  0  0  0
    3.0000    2.5981    0.0000 N   0  0  0  0  0  0  0  0  0  0  0  0
    3.7500    1.2990    0.0000 C   0  0  0  0  0  0  0  0  0  0  0  0
    5.2500    1.2990    0.0000 C   0  0  0  0  0  0  0  0  0  0  0  0
    6.0000    2.5981    0.0000 N   0  0  0  0  0  0  0  0  0  0  0  0
    7.5000    2.5981    0.0000 C   0  0  0  0  0  0  0  0  0  0  0  0
    5.2500    3.8971    0.0000 C   0  0  0  0  0  0  0  0  0  0  0  0
    3.7500    3.8971    0.0000 C   0  0  0  0  0  0  0  0  0  0  0  0
   -0.7500    1.2990    0.0000 C   0  0  0  0  0  0  0  0  0  0  0  0
   -1.5000    0.0000    0.0000 C   0  0  0  0  0  0  0  0  0  0  0  0
   -0.7500   -1.2990    0.0000 C   0  0  0  0  0  0  0  0  0  0  0  0
    1.9182   -6.2474    0.0000 S   0  0  0  0  0  0  0  0  0  0  0  0
  1  2  1  0
  2  3  2  0
  3  4  1  0
  4  5  2  0
  5  6  1  0
  6  7  2  0
  7  8  1  0
  8  9  1  0
  9 10  2  0
  9 11  1  0
 11 12  1  0
 12 13  1  0
 13 14  2  0
 14 15  1  0
 15 16  2  0
 16 17  1  0
 17 18  2  0
 18 19  1  0
 19 20  1  0
 20 21  2  0
 21 22  1  0
 22 23  1  0
 23 24  2  0
 24 25  1  0
 25 26  1  0
 26 27  1  0
 27 28  1  0
 28 29  1  0
 29 30  1  0
 30 31  1  0
 30 32  1  0
 32 33  1  0
 25 34  2  0
 34 35  1  0
 35 36  2  0
 16 37  1  0
  7  2  1  0
 37 13  1  0
 21 17  1  0
 36 23  1  0
 36 20  1  0
 33 27  1  0
M  END
>  <Molecule ChEMBL ID>  (65) 
CHEMBL425615

>  <Smiles>  (65) 
Cc1ccccc1NC(=O)NCc1ccc(-c2n[nH]c3c2Cc2cc(CN4CCN(C)CC4)ccc2-3)s1

>  <pChEMBL Value>  (65) 
4.6

>  <similarity>  (65) 
0.15306122448979592

$$$$

     RDKit          2D

 38 43  0  0  0  0  0  0  0  0999 V2000
    4.2529  -16.4773    0.0000 C   0  0  0  0  0  0  0  0  0  0  0  0
    3.9410  -15.0101    0.0000 C   0  0  0  0  0  0  0  0  0  0  0  0
    2.5144  -14.5466    0.0000 C   0  0  0  0  0  0  0  0  0  0  0  0
    2.2026  -13.0794    0.0000 C   0  0  0  0  0  0  0  0  0  0  0  0
    3.3173  -12.0757    0.0000 C   0  0  0  0  0  0  0  0  0  0  0  0
    4.7439  -12.5392    0.0000 C   0  0  0  0  0  0  0  0  0  0  0  0
    5.8586  -11.5355    0.0000 N   0  0  0  0  0  0  0  0  0  0  0  0
    7.2852  -11.9990    0.0000 C   0  0  0  0  0  0  0  0  0  0  0  0
    5.5467  -10.0683    0.0000 C   0  0  0  0  0  0  0  0  0  0  0  0
    6.6614   -9.0646    0.0000 O   0  0  0  0  0  0  0  0  0  0  0  0
    4.1201   -9.6047    0.0000 N   0  0  0  0  0  0  0  0  0  0  0  0
    3.8083   -8.1375    0.0000 C   0  0  0  0  0  0  0  0  0  0  0  0
    2.3817   -7.6740    0.0000 C   0  0  0  0  0  0  0  0  0  0  0  0
    1.1682   -8.5557    0.0000 C   0  0  0  0  0  0  0  0  0  0  0  0
   -0.0454   -7.6740    0.0000 C   0  0  0  0  0  0  0  0  0  0  0  0
    0.4182   -6.2474    0.0000 C   0  0  0  0  0  0  0  0  0  0  0  0
   -0.4635   -5.0339    0.0000 C   0  0  0  0  0  0  0  0  0  0  0  0
   -1.9635   -5.0339    0.0000 N   0  0  0  0  0  0  0  0  0  0  0  0
   -2.4271   -3.6073    0.0000 N   0  0  0  0  0  0  0  0  0  0  0  0
   -1.2135   -2.7256    0.0000 C   0  0  0  0  0  0  0  0  0  0  0  0
   -0.0000   -3.6073    0.0000 C   0  0  0  0  0  0  0  0  0  0  0  0
    1.2135   -2.7256    0.0000 C   0  0  0  0  0  0  0  0  0  0  0  0
    0.7500   -1.2990    0.0000 C   0  0  0  0  0  0  0  0  0  0  0  0
    1.5000    0.0000    0.0000 C   0  0  0  0  0  0  0  0  0  0  0  0
    0.7500    1.2990    0.0000 C   0  0  0  0  0  0  0  0  0  0  0  0
    1.5000    2.5981    0.0000 C   0  0  0  0  0  0  0  0  0  0  0  0
    3.0000    2.5981    0.0000 N   0  0  0  0  0  0  0  0  0  0  0  0
    3.7500    1.2990    0.0000 C   0  0  0  0  0  0  0  0  0  0  0  0
    5.2500    1.2990    0.0000 C   0  0  0  0  0  0  0  0  0  0  0  0
    6.0000    2.5981    0.0000 N   0  0  0  0  0  0  0  0  0  0  0  0
    7.5000    2.5981    0.0000 C   0  0  0  0  0  0  0  0  0  0  0  0
    5.2500    3.8971    0.0000 C   0  0  0  0  0  0  0  0  0  0  0  0
    3.7500    3.8971    0.0000 C   0  0  0  0  0  0  0  0  0  0  0  0
   -0.7500    1.2990    0.0000 C   0  0  0  0  0  0  0  0  0  0  0  0
   -1.5000    0.0000    0.0000 C   0  0  0  0  0  0  0  0  0  0  0  0
   -0.7500   -1.2990    0.0000 C   0  0  0  0  0  0  0  0  0  0  0  0
    1.9182   -6.2474    0.0000 S   0  0  0  0  0  0  0  0  0  0  0  0
    5.0557  -14.0064    0.0000 C   0  0  0  0  0  0  0  0  0  0  0  0
  1  2  1  0
  2  3  2  0
  3  4  1  0
  4  5  2  0
  5  6  1  0
  6  7  1  0
  7  8  1  0
  7  9  1  0
  9 10  2  0
  9 11  1  0
 11 12  1  0
 12 13  1  0
 13 14  2  0
 14 15  1  0
 15 16  2  0
 16 17  1  0
 17 18  1  0
 18 19  1  0
 19 20  2  0
 20 21  1  0
 21 22  1  0
 22 23  1  0
 23 24  2  0
 24 25  1  0
 25 26  1  0
 26 27  1  0
 27 28  1  0
 28 29  1  0
 29 30  1  0
 30 31  1  0
 30 32  1  0
 32 33  1  0
 25 34  2  0
 34 35  1  0
 35 36  2  0
 16 37  1  0
  6 38  2  0
 38  2  1  0
 37 13  1  0
 21 17  2  0
 36 23  1  0
 36 20  1  0
 33 27  1  0
M  END
>  <Molecule ChEMBL ID>  (66) 
CHEMBL425262

>  <Smiles>  (66) 
Cc1cccc(N(C)C(=O)NCc2ccc(-c3[nH]nc4c3Cc3cc(CN5CCN(C)CC5)ccc3-4)s2)c1

>  <pChEMBL Value>  (66) 
4.84

>  <similarity>  (66) 
0.11650485436893204

$$$$

     RDKit          2D

 78 82  0  0  0  0  0  0  0  0999 V2000
    8.1298    5.5499    0.0000 C   0  0  0  0  0  0  0  0  0  0  0  0
    6.6330    5.6474    0.0000 C   0  0  0  0  0  0  0  0  0  0  0  0
    5.8002    4.3998    0.0000 C   0  0  0  0  0  0  0  0  0  0  0  0
    5.9690    6.9924    0.0000 C   0  0  0  0  0  0  0  0  0  0  0  0
    4.4721    7.0898    0.0000 C   0  0  0  0  0  0  0  0  0  0  0  0
    4.2134    5.6123    0.0000 N   0  0  0  0  0  0  0  0  0  0  0  0
    3.6432    4.2249    0.0000 C   0  0  0  0  0  0  0  0  0  0  0  0
    4.9607    3.5080    0.0000 O   0  0  0  0  0  0  0  0  0  0  0  0
    2.7880    2.9926    0.0000 N   0  0  0  0  0  0  0  0  0  0  0  0
    1.6879    1.9729    0.0000 C   0  0  0  0  0  0  0  0  0  0  0  0
    2.5827    0.7690    0.0000 O   0  0  0  0  0  0  0  0  0  0  0  0
    0.3943    1.2135    0.0000 C   0  0  0  0  0  0  0  0  0  0  0  0
    1.2760    0.0000    0.0000 C   0  0  0  0  0  0  0  0  0  0  0  0
    0.3943   -1.2135    0.0000 C   0  0  0  0  0  0  0  0  0  0  0  0
   -1.0323   -0.7500    0.0000 C   0  0  0  0  0  0  0  0  0  0  0  0
   -1.0323    0.7500    0.0000 N   0  0  0  0  0  0  0  0  0  0  0  0
   -2.5252    0.6040    0.0000 C   0  0  0  0  0  0  0  0  0  0  0  0
   -2.5414   -0.8959    0.0000 O   0  0  0  0  0  0  0  0  0  0  0  0
   -4.0145    0.7823    0.0000 C   0  0  0  0  0  0  0  0  0  0  0  0
   -4.3528   -0.6790    0.0000 C   0  0  0  0  0  0  0  0  0  0  0  0
   -5.7876   -1.1167    0.0000 C   0  0  0  0  0  0  0  0  0  0  0  0
   -6.1259   -2.5781    0.0000 C   0  0  0  0  0  0  0  0  0  0  0  0
   -5.0294   -3.6017    0.0000 O   0  0  0  0  0  0  0  0  0  0  0  0
   -7.5606   -3.0158    0.0000 O   0  0  0  0  0  0  0  0  0  0  0  0
   -5.4307    1.2766    0.0000 N   0  0  0  0  0  0  0  0  0  0  0  0
   -6.7076    2.0638    0.0000 C   0  0  0  0  0  0  0  0  0  0  0  0
   -7.6282    0.8796    0.0000 O   0  0  0  0  0  0  0  0  0  0  0  0
   -7.7853    3.1071    0.0000 C   0  0  0  0  0  0  0  0  0  0  0  0
   -8.9390    2.1485    0.0000 C   0  0  0  0  0  0  0  0  0  0  0  0
  -10.3461    2.6683    0.0000 C   0  0  0  0  0  0  0  0  0  0  0  0
  -10.5994    4.1467    0.0000 O   0  0  0  0  0  0  0  0  0  0  0  0
  -11.4998    1.7097    0.0000 O   0  0  0  0  0  0  0  0  0  0  0  0
   -8.6136    4.3577    0.0000 N   0  0  0  0  0  0  0  0  0  0  0  0
   -9.1537    5.7571    0.0000 C   0  0  0  0  0  0  0  0  0  0  0  0
  -10.6033    5.3715    0.0000 O   0  0  0  0  0  0  0  0  0  0  0  0
   -9.3803    7.2399    0.0000 C   0  0  0  0  0  0  0  0  0  0  0  0
  -10.8789    7.1749    0.0000 C   0  0  0  0  0  0  0  0  0  0  0  0
  -11.6845    8.4402    0.0000 C   0  0  0  0  0  0  0  0  0  0  0  0
  -10.9914    9.7705    0.0000 C   0  0  0  0  0  0  0  0  0  0  0  0
  -11.7970   11.0359    0.0000 C   0  0  0  0  0  0  0  0  0  0  0  0
  -13.2956   10.9709    0.0000 C   0  0  0  0  0  0  0  0  0  0  0  0
  -14.1012   12.2362    0.0000 O   0  0  0  0  0  0  0  0  0  0  0  0
  -13.9886    9.6406    0.0000 C   0  0  0  0  0  0  0  0  0  0  0  0
  -13.1831    8.3753    0.0000 C   0  0  0  0  0  0  0  0  0  0  0  0
   -9.2829    8.7367    0.0000 N   0  0  0  0  0  0  0  0  0  0  0  0
   -8.8660   10.1776    0.0000 C   0  0  0  0  0  0  0  0  0  0  0  0
  -10.2533   10.7479    0.0000 O   0  0  0  0  0  0  0  0  0  0  0  0
   -8.1490   11.4952    0.0000 C   0  0  0  0  0  0  0  0  0  0  0  0
   -9.3814   12.3504    0.0000 C   0  0  0  0  0  0  0  0  0  0  0  0
   -9.2569   13.8452    0.0000 C   0  0  0  0  0  0  0  0  0  0  0  0
   -7.9001   14.4848    0.0000 C   0  0  0  0  0  0  0  0  0  0  0  0
   -7.7757   15.9797    0.0000 C   0  0  0  0  0  0  0  0  0  0  0  0
   -9.0081   16.8349    0.0000 C   0  0  0  0  0  0  0  0  0  0  0  0
  -10.3648   16.1952    0.0000 C   0  0  0  0  0  0  0  0  0  0  0  0
  -10.4893   14.7004    0.0000 C   0  0  0  0  0  0  0  0  0  0  0  0
   -7.1656   12.6278    0.0000 N   0  0  0  0  0  0  0  0  0  0  0  0
   -5.9617   13.5226    0.0000 N   0  0  0  0  0  0  0  0  0  0  0  0
   -4.5936   14.1377    0.0000 C   0  0  0  0  0  0  0  0  0  0  0  0
   -3.1253   14.4442    0.0000 C   0  0  0  0  0  0  0  0  0  0  0  0
   -4.0069   15.6578    0.0000 N   0  0  0  0  0  0  0  0  0  0  0  0
   -5.4335   15.1942    0.0000 N   0  0  0  0  0  0  0  0  0  0  0  0
   -1.6254   14.4280    0.0000 C   0  0  0  0  0  0  0  0  0  0  0  0
   -0.1640   14.0897    0.0000 C   0  0  0  0  0  0  0  0  0  0  0  0
    0.3303   15.5059    0.0000 C   0  0  0  0  0  0  0  0  0  0  0  0
    1.8040   15.7859    0.0000 N   0  0  0  0  0  0  0  0  0  0  0  0
   -0.6490   16.6421    0.0000 O   0  0  0  0  0  0  0  0  0  0  0  0
    1.1905   13.4451    0.0000 N   0  0  0  0  0  0  0  0  0  0  0  0
    2.3747   12.5245    0.0000 C   0  0  0  0  0  0  0  0  0  0  0  0
    3.4180   13.6022    0.0000 O   0  0  0  0  0  0  0  0  0  0  0  0
    3.3333   11.3708    0.0000 C   0  0  0  0  0  0  0  0  0  0  0  0
    4.5839   12.1991    0.0000 C   0  0  0  0  0  0  0  0  0  0  0  0
    5.9265   11.5302    0.0000 C   0  0  0  0  0  0  0  0  0  0  0  0
    7.1771   12.3585    0.0000 C   0  0  0  0  0  0  0  0  0  0  0  0
    7.0851   13.8556    0.0000 O   0  0  0  0  0  0  0  0  0  0  0  0
    8.5197   11.6896    0.0000 O   0  0  0  0  0  0  0  0  0  0  0  0
    4.0215   10.0380    0.0000 N   0  0  0  0  0  0  0  0  0  0  0  0
    4.4072    8.5884    0.0000 C   0  0  0  0  0  0  0  0  0  0  0  0
    5.8899    8.8150    0.0000 O   0  0  0  0  0  0  0  0  0  0  0  0
  1  2  1  0
  2  3  1  0
  2  4  1  0
  5  4  1  6
  5  6  1  0
  6  7  1  0
  7  8  2  0
  7  9  1  0
  9 10  1  0
 10 11  2  0
 10 12  1  0
 12 13  1  6
 13 14  1  0
 14 15  1  0
 15 16  1  0
 16 17  1  0
 17 18  2  0
 17 19  1  0
 19 20  1  6
 20 21  1  0
 21 22  1  0
 22 23  2  0
 22 24  1  0
 19 25  1  0
 25 26  1  0
 26 27  2  0
 26 28  1  0
 28 29  1  6
 29 30  1  0
 30 31  2  0
 30 32  1  0
 28 33  1  0
 33 34  1  0
 34 35  2  0
 34 36  1  0
 36 37  1  6
 37 38  1  0
 38 39  2  0
 39 40  1  0
 40 41  2  0
 41 42  1  0
 41 43  1  0
 43 44  2  0
 36 45  1  0
 45 46  1  0
 46 47  2  0
 46 48  1  0
 48 49  1  6
 49 50  1  0
 50 51  2  0
 51 52  1  0
 52 53  2  0
 53 54  1  0
 54 55  2  0
 48 56  1  0
 56 57  1  0
 57 58  1  0
 58 59  2  0
 59 60  1  0
 60 61  2  0
 59 62  1  0
 62 63  1  0
 63 64  1  1
 64 65  1  0
 64 66  2  0
 63 67  1  0
 67 68  1  0
 68 69  2  0
 68 70  1  0
 70 71  1  6
 71 72  1  0
 72 73  1  0
 73 74  2  0
 73 75  1  0
 70 76  1  0
 76 77  1  0
 77 78  2  0
 77  5  1  0
 16 12  1  0
 44 38  1  0
 55 50  1  0
 61 57  1  0
M  END
>  <Molecule ChEMBL ID>  (67) 
CHEMBL399914

>  <Smiles>  (67) 
CC(C)C[C@@H]1NC(=O)NC(=O)[C@@H]2CCCN2C(=O)[C@H](CCC(=O)O)NC(=O)[C@H](CC(=O)O)NC(=O)[C@H](Cc2ccc(O)cc2)NC(=O)[C@H](Cc2ccccc2)Nn2cc(nn2)C[C@@H](C(N)=O)NC(=O)[C@H](CCC(=O)O)NC1=O

>  <pChEMBL Value>  (67) 
4.03

>  <similarity>  (67) 
0.10833333333333334

$$$$

     RDKit          2D

145152  0  0  0  0  0  0  0  0999 V2000
   -2.6183  -10.3932    0.0000 C   0  0  0  0  0  0  0  0  0  0  0  0
   -1.3463   -9.5982    0.0000 C   0  0  0  0  0  0  0  0  0  0  0  0
   -0.2316  -10.6019    0.0000 C   0  0  0  0  0  0  0  0  0  0  0  0
   -0.8892  -11.9501    0.0000 C   0  0  0  0  0  0  0  0  0  0  0  0
    1.1950  -10.1384    0.0000 C   0  0  0  0  0  0  0  0  0  0  0  0
    2.3097  -11.1421    0.0000 N   0  0  0  0  0  0  0  0  0  0  0  0
    1.9979  -12.6093    0.0000 C   0  0  0  0  0  0  0  0  0  0  0  0
    0.6384  -13.2433    0.0000 O   0  0  0  0  0  0  0  0  0  0  0  0
    3.1126  -13.6130    0.0000 C   0  0  0  0  0  0  0  0  0  0  0  0
    2.8007  -15.0802    0.0000 C   0  0  0  0  0  0  0  0  0  0  0  0
    3.9154  -16.0839    0.0000 C   0  0  0  0  0  0  0  0  0  0  0  0
    3.6036  -17.5511    0.0000 C   0  0  0  0  0  0  0  0  0  0  0  0
    2.1770  -18.0147    0.0000 O   0  0  0  0  0  0  0  0  0  0  0  0
    4.7183  -18.5548    0.0000 O   0  0  0  0  0  0  0  0  0  0  0  0
    4.5392  -13.1495    0.0000 N   0  0  0  0  0  0  0  0  0  0  0  0
    5.6539  -14.1532    0.0000 C   0  0  0  0  0  0  0  0  0  0  0  0
    5.3420  -15.6204    0.0000 O   0  0  0  0  0  0  0  0  0  0  0  0
    7.0805  -13.6896    0.0000 C   0  0  0  0  0  0  0  0  0  0  0  0
    8.1952  -14.6933    0.0000 C   0  0  0  0  0  0  0  0  0  0  0  0
    9.6218  -14.2298    0.0000 C   0  0  0  0  0  0  0  0  0  0  0  0
   10.7365  -15.2335    0.0000 C   0  0  0  0  0  0  0  0  0  0  0  0
   12.1631  -14.7700    0.0000 C   0  0  0  0  0  0  0  0  0  0  0  0
   12.4749  -13.3028    0.0000 C   0  0  0  0  0  0  0  0  0  0  0  0
   13.9015  -12.8392    0.0000 O   0  0  0  0  0  0  0  0  0  0  0  0
   11.3602  -12.2991    0.0000 C   0  0  0  0  0  0  0  0  0  0  0  0
    9.9336  -12.7626    0.0000 C   0  0  0  0  0  0  0  0  0  0  0  0
    7.3923  -12.2224    0.0000 N   0  0  0  0  0  0  0  0  0  0  0  0
    6.2776  -11.2187    0.0000 C   0  0  0  0  0  0  0  0  0  0  0  0
    4.8510  -11.6822    0.0000 O   0  0  0  0  0  0  0  0  0  0  0  0
    6.5895   -9.7515    0.0000 C   0  0  0  0  0  0  0  0  0  0  0  0
    5.4748   -8.7478    0.0000 N   0  0  0  0  0  0  0  0  0  0  0  0
    5.7866   -7.2806    0.0000 C   0  0  0  0  0  0  0  0  0  0  0  0
    7.2132   -6.8171    0.0000 O   0  0  0  0  0  0  0  0  0  0  0  0
    4.6719   -6.2769    0.0000 C   0  0  0  0  0  0  0  0  0  0  0  0
    3.2453   -6.7404    0.0000 N   0  0  0  0  0  0  0  0  0  0  0  0
    4.9838   -4.8097    0.0000 C   0  0  0  0  0  0  0  0  0  0  0  0
    3.8691   -3.8060    0.0000 C   0  0  0  0  0  0  0  0  0  0  0  0
    4.1809   -2.3387    0.0000 N   0  0  0  0  0  0  0  0  0  0  0  0
    2.4425   -4.2695    0.0000 O   0  0  0  0  0  0  0  0  0  0  0  0
    1.5069   -8.6712    0.0000 C   0  0  0  0  0  0  0  0  0  0  0  0
    2.9335   -8.2076    0.0000 O   0  0  0  0  0  0  0  0  0  0  0  0
    0.3922   -7.6675    0.0000 N   0  0  0  0  0  0  0  0  0  0  0  0
   -1.0344   -8.1310    0.0000 C   0  0  0  0  0  0  0  0  0  0  0  0
   -1.3463   -9.5982    0.0000 C   0  0  0  0  0  0  0  0  0  0  0  0
   -0.2316  -10.6019    0.0000 C   0  0  0  0  0  0  0  0  0  0  0  0
   -0.5434  -12.0691    0.0000 C   0  0  0  0  0  0  0  0  0  0  0  0
   -1.8155  -12.8641    0.0000 O   0  0  0  0  0  0  0  0  0  0  0  0
    0.4406  -13.2012    0.0000 O   0  0  0  0  0  0  0  0  0  0  0  0
   -2.1491   -7.1273    0.0000 C   0  0  0  0  0  0  0  0  0  0  0  0
   -3.4212   -7.9222    0.0000 O   0  0  0  0  0  0  0  0  0  0  0  0
   -1.8373   -5.6601    0.0000 N   0  0  0  0  0  0  0  0  0  0  0  0
   -2.9520   -4.6564    0.0000 C   0  0  0  0  0  0  0  0  0  0  0  0
   -2.6401   -3.1891    0.0000 C   0  0  0  0  0  0  0  0  0  0  0  0
   -1.2135   -2.7256    0.0000 C   0  0  0  0  0  0  0  0  0  0  0  0
    0.0000   -3.6073    0.0000 C   0  0  0  0  0  0  0  0  0  0  0  0
    1.2135   -2.7256    0.0000 N   0  0  0  0  0  0  0  0  0  0  0  0
    0.7500   -1.2990    0.0000 C   0  0  0  0  0  0  0  0  0  0  0  0
    1.5000    0.0000    0.0000 C   0  0  0  0  0  0  0  0  0  0  0  0
    0.7500    1.2990    0.0000 C   0  0  0  0  0  0  0  0  0  0  0  0
   -0.7500    1.2990    0.0000 C   0  0  0  0  0  0  0  0  0  0  0  0
   -1.5000    0.0000    0.0000 C   0  0  0  0  0  0  0  0  0  0  0  0
   -0.7500   -1.2990    0.0000 C   0  0  0  0  0  0  0  0  0  0  0  0
   -4.3786   -5.1199    0.0000 C   0  0  0  0  0  0  0  0  0  0  0  0
   -5.7030   -4.4158    0.0000 O   0  0  0  0  0  0  0  0  0  0  0  0
   -4.6904   -6.5871    0.0000 N   0  0  0  0  0  0  0  0  0  0  0  0
   -6.1170   -7.0506    0.0000 C   0  0  0  0  0  0  0  0  0  0  0  0
   -6.4289   -8.5179    0.0000 C   0  0  0  0  0  0  0  0  0  0  0  0
   -7.8555   -8.9814    0.0000 C   0  0  0  0  0  0  0  0  0  0  0  0
   -8.9702   -7.9777    0.0000 C   0  0  0  0  0  0  0  0  0  0  0  0
  -10.3968   -8.4412    0.0000 C   0  0  0  0  0  0  0  0  0  0  0  0
  -10.7086   -9.9084    0.0000 C   0  0  0  0  0  0  0  0  0  0  0  0
  -12.1352  -10.3720    0.0000 O   0  0  0  0  0  0  0  0  0  0  0  0
   -9.5939  -10.9121    0.0000 C   0  0  0  0  0  0  0  0  0  0  0  0
   -8.1673  -10.4486    0.0000 C   0  0  0  0  0  0  0  0  0  0  0  0
   -7.2317   -6.0469    0.0000 C   0  0  0  0  0  0  0  0  0  0  0  0
   -7.2842   -4.5479    0.0000 O   0  0  0  0  0  0  0  0  0  0  0  0
   -8.6583   -6.5105    0.0000 N   0  0  0  0  0  0  0  0  0  0  0  0
   -9.7730   -5.5068    0.0000 C   0  0  0  0  0  0  0  0  0  0  0  0
  -11.1996   -5.9703    0.0000 C   0  0  0  0  0  0  0  0  0  0  0  0
  -12.3143   -4.9666    0.0000 O   0  0  0  0  0  0  0  0  0  0  0  0
   -9.4612   -4.0396    0.0000 C   0  0  0  0  0  0  0  0  0  0  0  0
   -8.0346   -3.5760    0.0000 O   0  0  0  0  0  0  0  0  0  0  0  0
  -10.5759   -3.0359    0.0000 N   0  0  0  0  0  0  0  0  0  0  0  0
  -10.2640   -1.5686    0.0000 C   0  0  0  0  0  0  0  0  0  0  0  0
  -11.3787   -0.5649    0.0000 C   0  0  0  0  0  0  0  0  0  0  0  0
  -11.0669    0.9023    0.0000 C   0  0  0  0  0  0  0  0  0  0  0  0
   -9.6965    1.5124    0.0000 C   0  0  0  0  0  0  0  0  0  0  0  0
   -9.8533    3.0042    0.0000 N   0  0  0  0  0  0  0  0  0  0  0  0
  -11.3206    3.3160    0.0000 C   0  0  0  0  0  0  0  0  0  0  0  0
  -12.0706    4.6151    0.0000 C   0  0  0  0  0  0  0  0  0  0  0  0
  -13.5706    4.6151    0.0000 C   0  0  0  0  0  0  0  0  0  0  0  0
  -14.3206    3.3160    0.0000 C   0  0  0  0  0  0  0  0  0  0  0  0
  -13.5706    2.0170    0.0000 C   0  0  0  0  0  0  0  0  0  0  0  0
  -12.0706    2.0170    0.0000 C   0  0  0  0  0  0  0  0  0  0  0  0
   -8.8374   -1.1051    0.0000 C   0  0  0  0  0  0  0  0  0  0  0  0
   -7.7227   -2.1088    0.0000 O   0  0  0  0  0  0  0  0  0  0  0  0
   -8.5256    0.3621    0.0000 N   0  0  0  0  0  0  0  0  0  0  0  0
   -7.0990    0.8256    0.0000 C   0  0  0  0  0  0  0  0  0  0  0  0
   -5.9843   -0.1781    0.0000 C   0  0  0  0  0  0  0  0  0  0  0  0
   -6.2961   -1.6453    0.0000 O   0  0  0  0  0  0  0  0  0  0  0  0
   -4.5577    0.2855    0.0000 N   0  0  0  0  0  0  0  0  0  0  0  0
   -3.4430   -0.7182    0.0000 C   0  0  0  0  0  0  0  0  0  0  0  0
   -3.7548   -2.1855    0.0000 C   0  0  0  0  0  0  0  0  0  0  0  0
   -2.4304   -2.8896    0.0000 O   0  0  0  0  0  0  0  0  0  0  0  0
   -5.1814   -2.6490    0.0000 N   0  0  0  0  0  0  0  0  0  0  0  0
   -5.4933   -4.1162    0.0000 C   0  0  0  0  0  0  0  0  0  0  0  0
   -6.9199   -4.5797    0.0000 C   0  0  0  0  0  0  0  0  0  0  0  0
   -7.2317   -6.0469    0.0000 C   0  0  0  0  0  0  0  0  0  0  0  0
   -6.2280   -7.1617    0.0000 C   0  0  0  0  0  0  0  0  0  0  0  0
   -6.9780   -8.4607    0.0000 N   0  0  0  0  0  0  0  0  0  0  0  0
   -8.4453   -8.1488    0.0000 C   0  0  0  0  0  0  0  0  0  0  0  0
   -8.6021   -6.6571    0.0000 N   0  0  0  0  0  0  0  0  0  0  0  0
   -4.3786   -5.1199    0.0000 C   0  0  0  0  0  0  0  0  0  0  0  0
   -2.8822   -5.0153    0.0000 O   0  0  0  0  0  0  0  0  0  0  0  0
   -4.6904   -6.5871    0.0000 N   0  0  0  0  0  0  0  0  0  0  0  0
   -3.5757   -7.5908    0.0000 C   0  0  0  0  0  0  0  0  0  0  0  0
   -3.8876   -9.0580    0.0000 C   0  0  0  0  0  0  0  0  0  0  0  0
   -5.3142   -9.5216    0.0000 O   0  0  0  0  0  0  0  0  0  0  0  0
   -2.7729  -10.0617    0.0000 N   0  0  0  0  0  0  0  0  0  0  0  0
   -3.0847  -11.5290    0.0000 C   0  0  0  0  0  0  0  0  0  0  0  0
   -1.9700  -12.5326    0.0000 C   0  0  0  0  0  0  0  0  0  0  0  0
   -2.2819  -13.9999    0.0000 C   0  0  0  0  0  0  0  0  0  0  0  0
   -1.1672  -15.0036    0.0000 S   0  0  0  0  0  0  0  0  0  0  0  0
   -1.4790  -16.4708    0.0000 C   0  0  0  0  0  0  0  0  0  0  0  0
   -4.5113  -11.9925    0.0000 C   0  0  0  0  0  0  0  0  0  0  0  0
   -5.6260  -10.9888    0.0000 O   0  0  0  0  0  0  0  0  0  0  0  0
   -4.8232  -13.4597    0.0000 N   0  0  0  0  0  0  0  0  0  0  0  0
   -6.2498  -13.9232    0.0000 C   0  0  0  0  0  0  0  0  0  0  0  0
   -6.5616  -15.3904    0.0000 C   0  0  0  0  0  0  0  0  0  0  0  0
   -7.9882  -15.8540    0.0000 C   0  0  0  0  0  0  0  0  0  0  0  0
   -9.1029  -14.8503    0.0000 C   0  0  0  0  0  0  0  0  0  0  0  0
  -10.5295  -15.3138    0.0000 C   0  0  0  0  0  0  0  0  0  0  0  0
  -10.8414  -16.7810    0.0000 C   0  0  0  0  0  0  0  0  0  0  0  0
  -12.2680  -17.2445    0.0000 O   0  0  0  0  0  0  0  0  0  0  0  0
   -9.7267  -17.7847    0.0000 C   0  0  0  0  0  0  0  0  0  0  0  0
   -8.3001  -17.3212    0.0000 C   0  0  0  0  0  0  0  0  0  0  0  0
   -7.3645  -12.9195    0.0000 C   0  0  0  0  0  0  0  0  0  0  0  0
   -8.7911  -13.3831    0.0000 N   0  0  0  0  0  0  0  0  0  0  0  0
   -7.0526  -11.4523    0.0000 O   0  0  0  0  0  0  0  0  0  0  0  0
   -2.0164   -0.2547    0.0000 C   0  0  0  0  0  0  0  0  0  0  0  0
   -0.6919   -0.9588    0.0000 C   0  0  0  0  0  0  0  0  0  0  0  0
   -1.7045    1.2125    0.0000 O   0  0  0  0  0  0  0  0  0  0  0  0
   -6.7871    2.2929    0.0000 C   0  0  0  0  0  0  0  0  0  0  0  0
   -5.3605    2.7564    0.0000 C   0  0  0  0  0  0  0  0  0  0  0  0
   -7.9018    3.2966    0.0000 C   0  0  0  0  0  0  0  0  0  0  0  0
  1  2  1  0
  2  3  1  0
  3  4  1  1
  3  5  1  0
  5  6  1  1
  6  7  1  0
  7  8  2  0
  7  9  1  0
  9 10  1  1
 10 11  1  0
 11 12  1  0
 12 13  2  0
 12 14  1  0
  9 15  1  0
 15 16  1  0
 16 17  2  0
 16 18  1  0
 18 19  1  1
 19 20  1  0
 20 21  2  0
 21 22  1  0
 22 23  2  0
 23 24  1  0
 23 25  1  0
 25 26  2  0
 18 27  1  0
 27 28  1  0
 28 29  2  0
 28 30  1  0
 30 31  1  0
 31 32  1  0
 32 33  2  0
 32 34  1  0
 34 35  1  1
 34 36  1  0
 36 37  1  0
 37 38  1  0
 37 39  2  0
  5 40  1  0
 40 41  2  0
 40 42  1  0
 42 43  1  0
 43 44  1  1
 44 45  1  0
 45 46  1  0
 46 47  2  0
 46 48  1  0
 43 49  1  0
 49 50  2  0
 49 51  1  0
 51 52  1  0
 52 53  1  6
 53 54  1  0
 54 55  2  0
 55 56  1  0
 56 57  1  0
 57 58  2  0
 58 59  1  0
 59 60  2  0
 60 61  1  0
 61 62  2  0
 52 63  1  0
 63 64  2  0
 63 65  1  0
 65 66  1  0
 66 67  1  1
 67 68  1  0
 68 69  2  0
 69 70  1  0
 70 71  2  0
 71 72  1  0
 71 73  1  0
 73 74  2  0
 66 75  1  0
 75 76  2  0
 75 77  1  0
 77 78  1  0
 78 79  1  1
 79 80  1  0
 78 81  1  0
 81 82  2  0
 81 83  1  0
 83 84  1  0
 84 85  1  1
 85 86  1  0
 86 87  2  0
 87 88  1  0
 88 89  1  0
 89 90  2  0
 90 91  1  0
 91 92  2  0
 92 93  1  0
 93 94  2  0
 84 95  1  0
 95 96  2  0
 95 97  1  0
 98 97  1  1
 98 99  1  0
 99100  2  0
 99101  1  0
102101  1  1
102103  1  0
103104  2  0
103105  1  0
105106  1  0
106107  1  6
107108  1  0
108109  2  0
109110  1  0
110111  2  0
111112  1  0
106113  1  0
113114  2  0
113115  1  0
115116  1  0
116117  1  0
117118  2  0
117119  1  0
119120  1  0
120121  1  1
121122  1  0
122123  1  0
123124  1  0
120125  1  0
125126  2  0
125127  1  0
127128  1  0
128129  1  1
129130  1  0
130131  2  0
131132  1  0
132133  2  0
133134  1  0
133135  1  0
135136  2  0
128137  1  0
137138  1  0
137139  2  0
102140  1  0
140141  1  6
140142  1  0
 98143  1  0
143144  1  0
143145  1  0
 26 20  1  0
 62 54  1  0
 74 68  1  0
 94 86  1  0
112108  1  0
136130  1  0
 62 57  1  0
 94 89  1  0
M  END
>  <Molecule ChEMBL ID>  (68) 
CHEMBL430206

>  <Smiles>  (68) 
CC[C@H](C)[C@H](NC(=O)[C@H](CCC(=O)O)NC(=O)[C@H](Cc1ccc(O)cc1)NC(=O)CNC(=O)[C@@H](N)CC(N)=O)C(=O)N[C@@H](CCC(=O)O)C(=O)N[C@@H](Cc1c[nH]c2ccccc12)C(=O)N[C@@H](Cc1ccc(O)cc1)C(=O)N[C@@H](CO)C(=O)N[C@@H](Cc1c[nH]c2ccccc12)C(=O)N[C@H](C(=O)N[C@H](C(=O)N[C@@H](Cc1cnc[nH]1)C(=O)NCC(=O)N[C@@H](CCSC)C(=O)N[C@@H](Cc1ccc(O)cc1)C(N)=O)[C@@H](C)O)C(C)C

>  <pChEMBL Value>  (68) 
4.55

>  <similarity>  (68) 
0.10948905109489052

$$$$

     RDKit          2D

 37 42  0  0  0  0  0  0  0  0999 V2000
   11.5649  -13.3896    0.0000 C   0  0  0  0  0  0  0  0  0  0  0  0
   10.1383  -12.9261    0.0000 C   0  0  0  0  0  0  0  0  0  0  0  0
    9.0236  -13.9298    0.0000 C   0  0  0  0  0  0  0  0  0  0  0  0
    7.5970  -13.4662    0.0000 C   0  0  0  0  0  0  0  0  0  0  0  0
    7.2852  -11.9990    0.0000 C   0  0  0  0  0  0  0  0  0  0  0  0
    5.8586  -11.5355    0.0000 N   0  0  0  0  0  0  0  0  0  0  0  0
    5.5467  -10.0683    0.0000 C   0  0  0  0  0  0  0  0  0  0  0  0
    6.6614   -9.0646    0.0000 O   0  0  0  0  0  0  0  0  0  0  0  0
    4.1201   -9.6047    0.0000 N   0  0  0  0  0  0  0  0  0  0  0  0
    3.8083   -8.1375    0.0000 C   0  0  0  0  0  0  0  0  0  0  0  0
    2.3817   -7.6740    0.0000 C   0  0  0  0  0  0  0  0  0  0  0  0
    1.1682   -8.5557    0.0000 C   0  0  0  0  0  0  0  0  0  0  0  0
   -0.0454   -7.6740    0.0000 C   0  0  0  0  0  0  0  0  0  0  0  0
    0.4182   -6.2474    0.0000 C   0  0  0  0  0  0  0  0  0  0  0  0
   -0.4635   -5.0339    0.0000 C   0  0  0  0  0  0  0  0  0  0  0  0
   -1.9635   -5.0339    0.0000 N   0  0  0  0  0  0  0  0  0  0  0  0
   -2.4271   -3.6073    0.0000 N   0  0  0  0  0  0  0  0  0  0  0  0
   -1.2135   -2.7256    0.0000 C   0  0  0  0  0  0  0  0  0  0  0  0
   -0.0000   -3.6073    0.0000 C   0  0  0  0  0  0  0  0  0  0  0  0
    1.2135   -2.7256    0.0000 C   0  0  0  0  0  0  0  0  0  0  0  0
    0.7500   -1.2990    0.0000 C   0  0  0  0  0  0  0  0  0  0  0  0
    1.5000    0.0000    0.0000 C   0  0  0  0  0  0  0  0  0  0  0  0
    0.7500    1.2990    0.0000 C   0  0  0  0  0  0  0  0  0  0  0  0
    1.5000    2.5981    0.0000 C   0  0  0  0  0  0  0  0  0  0  0  0
    3.0000    2.5981    0.0000 N   0  0  0  0  0  0  0  0  0  0  0  0
    3.7500    1.2990    0.0000 C   0  0  0  0  0  0  0  0  0  0  0  0
    5.2500    1.2990    0.0000 C   0  0  0  0  0  0  0  0  0  0  0  0
    6.0000    2.5981    0.0000 N   0  0  0  0  0  0  0  0  0  0  0  0
    7.5000    2.5981    0.0000 C   0  0  0  0  0  0  0  0  0  0  0  0
    5.2500    3.8971    0.0000 C   0  0  0  0  0  0  0  0  0  0  0  0
    3.7500    3.8971    0.0000 C   0  0  0  0  0  0  0  0  0  0  0  0
   -0.7500    1.2990    0.0000 C   0  0  0  0  0  0  0  0  0  0  0  0
   -1.5000    0.0000    0.0000 C   0  0  0  0  0  0  0  0  0  0  0  0
   -0.7500   -1.2990    0.0000 C   0  0  0  0  0  0  0  0  0  0  0  0
    1.9182   -6.2474    0.0000 S   0  0  0  0  0  0  0  0  0  0  0  0
    8.3999  -10.9953    0.0000 C   0  0  0  0  0  0  0  0  0  0  0  0
    9.8265  -11.4588    0.0000 C   0  0  0  0  0  0  0  0  0  0  0  0
  1  2  1  0
  2  3  2  0
  3  4  1  0
  4  5  2  0
  5  6  1  0
  6  7  1  0
  7  8  2  0
  7  9  1  0
  9 10  1  0
 10 11  1  0
 11 12  2  0
 12 13  1  0
 13 14  2  0
 14 15  1  0
 15 16  2  0
 16 17  1  0
 17 18  1  0
 18 19  2  0
 19 20  1  0
 20 21  1  0
 21 22  2  0
 22 23  1  0
 23 24  1  0
 24 25  1  0
 25 26  1  0
 26 27  1  0
 27 28  1  0
 28 29  1  0
 28 30  1  0
 30 31  1  0
 23 32  2  0
 32 33  1  0
 33 34  2  0
 14 35  1  0
  5 36  1  0
 36 37  2  0
 37  2  1  0
 35 11  1  0
 19 15  1  0
 34 21  1  0
 34 18  1  0
 31 25  1  0
M  END
>  <Molecule ChEMBL ID>  (69) 
CHEMBL415047

>  <Smiles>  (69) 
Cc1ccc(NC(=O)NCc2ccc(-c3n[nH]c4c3Cc3cc(CN5CCN(C)CC5)ccc3-4)s2)cc1

>  <pChEMBL Value>  (69) 
4.94

>  <similarity>  (69) 
0.14432989690721648

$$$$

     RDKit          2D

 95 97  0  0  0  0  0  0  0  0999 V2000
    8.1173    8.1673    0.0000 C   0  0  0  0  0  0  0  0  0  0  0  0
    6.6501    7.8555    0.0000 C   0  0  0  0  0  0  0  0  0  0  0  0
    6.1865    6.4289    0.0000 C   0  0  0  0  0  0  0  0  0  0  0  0
    4.7193    6.1170    0.0000 C   0  0  0  0  0  0  0  0  0  0  0  0
    4.2558    4.6904    0.0000 N   0  0  0  0  0  0  0  0  0  0  0  0
    2.7886    4.3786    0.0000 C   0  0  0  0  0  0  0  0  0  0  0  0
    1.7849    5.4933    0.0000 O   0  0  0  0  0  0  0  0  0  0  0  0
    2.3250    2.9520    0.0000 C   0  0  0  0  0  0  0  0  0  0  0  0
    0.8578    2.6401    0.0000 C   0  0  0  0  0  0  0  0  0  0  0  0
    0.3943    1.2135    0.0000 C   0  0  0  0  0  0  0  0  0  0  0  0
    1.2760    0.0000    0.0000 C   0  0  0  0  0  0  0  0  0  0  0  0
    0.3943   -1.2135    0.0000 N   0  0  0  0  0  0  0  0  0  0  0  0
   -1.0323   -0.7500    0.0000 C   0  0  0  0  0  0  0  0  0  0  0  0
   -1.0323    0.7500    0.0000 N   0  0  0  0  0  0  0  0  0  0  0  0
    3.3287    1.8373    0.0000 N   0  0  0  0  0  0  0  0  0  0  0  0
    4.7960    2.1491    0.0000 C   0  0  0  0  0  0  0  0  0  0  0  0
    5.2595    3.5757    0.0000 O   0  0  0  0  0  0  0  0  0  0  0  0
    5.7997    1.0344    0.0000 C   0  0  0  0  0  0  0  0  0  0  0  0
    7.2669    1.3463    0.0000 C   0  0  0  0  0  0  0  0  0  0  0  0
    8.2706    0.2316    0.0000 C   0  0  0  0  0  0  0  0  0  0  0  0
    9.7378    0.5434    0.0000 C   0  0  0  0  0  0  0  0  0  0  0  0
   10.7415   -0.5713    0.0000 N   0  0  0  0  0  0  0  0  0  0  0  0
   10.2013    1.9700    0.0000 O   0  0  0  0  0  0  0  0  0  0  0  0
    5.3361   -0.3922    0.0000 N   0  0  0  0  0  0  0  0  0  0  0  0
    6.3398   -1.5069    0.0000 C   0  0  0  0  0  0  0  0  0  0  0  0
    7.8071   -1.1950    0.0000 O   0  0  0  0  0  0  0  0  0  0  0  0
    5.8763   -2.9335    0.0000 C   0  0  0  0  0  0  0  0  0  0  0  0
    6.8800   -4.0482    0.0000 N   0  0  0  0  0  0  0  0  0  0  0  0
    6.4165   -5.4748    0.0000 C   0  0  0  0  0  0  0  0  0  0  0  0
    4.9493   -5.7866    0.0000 O   0  0  0  0  0  0  0  0  0  0  0  0
    7.4202   -6.5895    0.0000 C   0  0  0  0  0  0  0  0  0  0  0  0
    6.9566   -8.0161    0.0000 C   0  0  0  0  0  0  0  0  0  0  0  0
    7.9603   -9.1308    0.0000 C   0  0  0  0  0  0  0  0  0  0  0  0
    7.4968  -10.5574    0.0000 C   0  0  0  0  0  0  0  0  0  0  0  0
    8.5005  -11.6721    0.0000 N   0  0  0  0  0  0  0  0  0  0  0  0
    6.0296  -10.8692    0.0000 O   0  0  0  0  0  0  0  0  0  0  0  0
    8.8874   -6.2776    0.0000 N   0  0  0  0  0  0  0  0  0  0  0  0
    9.8911   -7.3923    0.0000 C   0  0  0  0  0  0  0  0  0  0  0  0
    9.4276   -8.8189    0.0000 O   0  0  0  0  0  0  0  0  0  0  0  0
   11.3583   -7.0805    0.0000 C   0  0  0  0  0  0  0  0  0  0  0  0
   12.3620   -8.1952    0.0000 C   0  0  0  0  0  0  0  0  0  0  0  0
   11.8985   -9.6218    0.0000 C   0  0  0  0  0  0  0  0  0  0  0  0
   10.4719  -10.0853    0.0000 C   0  0  0  0  0  0  0  0  0  0  0  0
   10.4719  -11.5853    0.0000 N   0  0  0  0  0  0  0  0  0  0  0  0
   11.8985  -12.0488    0.0000 C   0  0  0  0  0  0  0  0  0  0  0  0
   12.7802  -10.8353    0.0000 N   0  0  0  0  0  0  0  0  0  0  0  0
   11.8218   -5.6539    0.0000 N   0  0  0  0  0  0  0  0  0  0  0  0
   13.2891   -5.3420    0.0000 C   0  0  0  0  0  0  0  0  0  0  0  0
   14.2928   -6.4567    0.0000 O   0  0  0  0  0  0  0  0  0  0  0  0
   13.7526   -3.9154    0.0000 C   0  0  0  0  0  0  0  0  0  0  0  0
   12.8709   -2.7019    0.0000 C   0  0  0  0  0  0  0  0  0  0  0  0
   13.7526   -1.4884    0.0000 C   0  0  0  0  0  0  0  0  0  0  0  0
   15.1792   -1.9519    0.0000 C   0  0  0  0  0  0  0  0  0  0  0  0
   15.1792   -3.4519    0.0000 N   0  0  0  0  0  0  0  0  0  0  0  0
   16.3927   -4.3336    0.0000 C   0  0  0  0  0  0  0  0  0  0  0  0
   16.2359   -5.8254    0.0000 O   0  0  0  0  0  0  0  0  0  0  0  0
   17.7630   -3.7235    0.0000 C   0  0  0  0  0  0  0  0  0  0  0  0
   18.9765   -4.6052    0.0000 C   0  0  0  0  0  0  0  0  0  0  0  0
   20.3469   -3.9951    0.0000 C   0  0  0  0  0  0  0  0  0  0  0  0
   21.5604   -4.8767    0.0000 C   0  0  0  0  0  0  0  0  0  0  0  0
   22.9307   -4.2666    0.0000 C   0  0  0  0  0  0  0  0  0  0  0  0
   24.1442   -5.1483    0.0000 N   0  0  0  0  0  0  0  0  0  0  0  0
   17.9198   -2.2317    0.0000 N   0  0  0  0  0  0  0  0  0  0  0  0
   19.2901   -1.6216    0.0000 C   0  0  0  0  0  0  0  0  0  0  0  0
   20.5036   -2.5033    0.0000 O   0  0  0  0  0  0  0  0  0  0  0  0
   19.4469   -0.1298    0.0000 C   0  0  0  0  0  0  0  0  0  0  0  0
   18.2334    0.7519    0.0000 N   0  0  0  0  0  0  0  0  0  0  0  0
   18.3902    2.2436    0.0000 C   0  0  0  0  0  0  0  0  0  0  0  0
   19.7605    2.8537    0.0000 O   0  0  0  0  0  0  0  0  0  0  0  0
   17.1767    3.1253    0.0000 C   0  0  0  0  0  0  0  0  0  0  0  0
   17.3334    4.6171    0.0000 C   0  0  0  0  0  0  0  0  0  0  0  0
   16.1199    5.4988    0.0000 C   0  0  0  0  0  0  0  0  0  0  0  0
   16.2767    6.9906    0.0000 C   0  0  0  0  0  0  0  0  0  0  0  0
   15.0632    7.8722    0.0000 N   0  0  0  0  0  0  0  0  0  0  0  0
   15.2200    9.3640    0.0000 C   0  0  0  0  0  0  0  0  0  0  0  0
   16.5903    9.9741    0.0000 N   0  0  0  0  0  0  0  0  0  0  0  0
   14.0065   10.2457    0.0000 N   0  0  0  0  0  0  0  0  0  0  0  0
   15.8063    2.5152    0.0000 N   0  0  0  0  0  0  0  0  0  0  0  0
   14.5928    3.3969    0.0000 C   0  0  0  0  0  0  0  0  0  0  0  0
   14.7496    4.8887    0.0000 O   0  0  0  0  0  0  0  0  0  0  0  0
   13.2225    2.7868    0.0000 C   0  0  0  0  0  0  0  0  0  0  0  0
   13.0657    1.2950    0.0000 C   0  0  0  0  0  0  0  0  0  0  0  0
   11.6954    0.6849    0.0000 C   0  0  0  0  0  0  0  0  0  0  0  0
   11.5386   -0.8069    0.0000 C   0  0  0  0  0  0  0  0  0  0  0  0
   12.0090    3.6685    0.0000 N   0  0  0  0  0  0  0  0  0  0  0  0
   12.1658    5.1603    0.0000 C   0  0  0  0  0  0  0  0  0  0  0  0
   10.9522    6.0419    0.0000 C   0  0  0  0  0  0  0  0  0  0  0  0
   13.5361    5.7704    0.0000 O   0  0  0  0  0  0  0  0  0  0  0  0
   20.8172    0.4803    0.0000 C   0  0  0  0  0  0  0  0  0  0  0  0
   20.9740    1.9721    0.0000 C   0  0  0  0  0  0  0  0  0  0  0  0
   22.0308   -0.4014    0.0000 C   0  0  0  0  0  0  0  0  0  0  0  0
   23.4011    0.2087    0.0000 C   0  0  0  0  0  0  0  0  0  0  0  0
    3.7156    7.2317    0.0000 C   0  0  0  0  0  0  0  0  0  0  0  0
    4.1791    8.6583    0.0000 N   0  0  0  0  0  0  0  0  0  0  0  0
    2.2484    6.9199    0.0000 O   0  0  0  0  0  0  0  0  0  0  0  0
  1  2  2  0
  2  3  1  0
  4  3  1  6
  4  5  1  0
  5  6  1  0
  6  7  2  0
  6  8  1  0
  8  9  1  1
  9 10  1  0
 10 11  2  0
 11 12  1  0
 12 13  2  0
 13 14  1  0
  8 15  1  0
 15 16  1  0
 16 17  2  0
 16 18  1  0
 18 19  1  6
 19 20  1  0
 20 21  1  0
 21 22  1  0
 21 23  2  0
 18 24  1  0
 24 25  1  0
 25 26  2  0
 25 27  1  0
 27 28  1  0
 28 29  1  0
 29 30  2  0
 29 31  1  0
 31 32  1  1
 32 33  1  0
 33 34  1  0
 34 35  1  0
 34 36  2  0
 31 37  1  0
 37 38  1  0
 38 39  2  0
 38 40  1  0
 40 41  1  1
 41 42  1  0
 42 43  2  0
 43 44  1  0
 44 45  2  0
 45 46  1  0
 40 47  1  0
 47 48  1  0
 48 49  2  0
 50 48  1  6
 50 51  1  0
 51 52  1  0
 52 53  1  0
 53 54  1  0
 54 55  1  0
 55 56  2  0
 55 57  1  0
 57 58  1  1
 58 59  1  0
 59 60  1  0
 60 61  1  0
 61 62  1  0
 57 63  1  0
 63 64  1  0
 64 65  2  0
 64 66  1  0
 66 67  1  1
 67 68  1  0
 68 69  2  0
 68 70  1  0
 70 71  1  1
 71 72  1  0
 72 73  1  0
 73 74  1  0
 74 75  1  0
 75 76  2  0
 75 77  1  0
 70 78  1  0
 78 79  1  0
 79 80  2  0
 79 81  1  0
 81 82  1  6
 82 83  1  0
 83 84  2  0
 81 85  1  0
 85 86  1  0
 86 87  1  0
 86 88  2  0
 66 89  1  0
 89 90  1  1
 89 91  1  0
 91 92  1  0
  4 93  1  0
 93 94  1  0
 93 95  2  0
 14 10  1  0
 46 42  1  0
 54 50  1  0
M  END
>  <Molecule ChEMBL ID>  (70) 
CHEMBL1684376

>  <Smiles>  (70) 
C=CC[C@H](NC(=O)[C@H](Cc1cnc[nH]1)NC(=O)[C@H](CCC(N)=O)NC(=O)CNC(=O)[C@H](CCC(N)=O)NC(=O)[C@H](Cc1cnc[nH]1)NC(=O)[C@@H]1CCCN1C(=O)[C@H](CCCCN)NC(=O)[C@@H](NC(=O)[C@H](CCCNC(=N)N)NC(=O)[C@H](CC=C)NC(C)=O)[C@@H](C)CC)C(N)=O

>  <pChEMBL Value>  (70) 
4.0

>  <similarity>  (70) 
0.06428571428571428

$$$$

     RDKit          2D

 26 29  0  0  0  0  0  0  0  0999 V2000
   -2.9499    4.2246    0.0000 N   0  0  0  0  0  0  0  0  0  0  0  0
   -1.8351    3.2209    0.0000 C   0  0  0  0  0  0  0  0  0  0  0  0
   -0.4086    3.6844    0.0000 N   0  0  0  0  0  0  0  0  0  0  0  0
    0.7062    2.6807    0.0000 C   0  0  0  0  0  0  0  0  0  0  0  0
    2.1328    3.1443    0.0000 N   0  0  0  0  0  0  0  0  0  0  0  0
    2.4446    4.6115    0.0000 C   0  0  0  0  0  0  0  0  0  0  0  0
    3.8712    5.0750    0.0000 C   0  0  0  0  0  0  0  0  0  0  0  0
    4.1831    6.5422    0.0000 C   0  0  0  0  0  0  0  0  0  0  0  0
    3.0684    7.5459    0.0000 C   0  0  0  0  0  0  0  0  0  0  0  0
    1.6418    7.0824    0.0000 C   0  0  0  0  0  0  0  0  0  0  0  0
    0.5271    8.0861    0.0000 Br  0  0  0  0  0  0  0  0  0  0  0  0
    1.3299    5.6152    0.0000 C   0  0  0  0  0  0  0  0  0  0  0  0
    0.3943    1.2135    0.0000 C   0  0  0  0  0  0  0  0  0  0  0  0
    1.2760    0.0000    0.0000 C   0  0  0  0  0  0  0  0  0  0  0  0
    0.3943   -1.2135    0.0000 C   0  0  0  0  0  0  0  0  0  0  0  0
   -1.0323   -0.7500    0.0000 N   0  0  0  0  0  0  0  0  0  0  0  0
   -2.2458   -1.6317    0.0000 C   0  0  0  0  0  0  0  0  0  0  0  0
   -2.0890   -3.1235    0.0000 C   0  0  0  0  0  0  0  0  0  0  0  0
   -3.3025   -4.0051    0.0000 C   0  0  0  0  0  0  0  0  0  0  0  0
   -3.1458   -5.4969    0.0000 C   0  0  0  0  0  0  0  0  0  0  0  0
   -1.7754   -6.1070    0.0000 C   0  0  0  0  0  0  0  0  0  0  0  0
   -1.6186   -7.5988    0.0000 Cl  0  0  0  0  0  0  0  0  0  0  0  0
   -0.5619   -5.2253    0.0000 C   0  0  0  0  0  0  0  0  0  0  0  0
   -0.7187   -3.7336    0.0000 C   0  0  0  0  0  0  0  0  0  0  0  0
   -1.0323    0.7500    0.0000 C   0  0  0  0  0  0  0  0  0  0  0  0
   -2.1470    1.7537    0.0000 N   0  0  0  0  0  0  0  0  0  0  0  0
  1  2  1  0
  2  3  2  0
  3  4  1  0
  4  5  1  0
  5  6  1  0
  6  7  2  0
  7  8  1  0
  8  9  2  0
  9 10  1  0
 10 11  1  0
 10 12  2  0
  4 13  2  0
 13 14  1  0
 14 15  2  0
 15 16  1  0
 16 17  1  0
 17 18  1  0
 18 19  2  0
 19 20  1  0
 20 21  2  0
 21 22  1  0
 21 23  1  0
 23 24  2  0
 16 25  1  0
 25 26  2  0
 26  2  1  0
 12  6  1  0
 25 13  1  0
 24 18  1  0
M  END
>  <Molecule ChEMBL ID>  (71) 
CHEMBL1956891

>  <Smiles>  (71) 
Nc1nc(Nc2cccc(Br)c2)c2ccn(Cc3ccc(Cl)cc3)c2n1

>  <pChEMBL Value>  (71) 
4.1

>  <similarity>  (71) 
0.09523809523809523

$$$$

     RDKit          2D

 23 25  0  0  0  0  0  0  0  0999 V2000
    3.0000   -5.1962    0.0000 C   0  0  0  0  0  0  0  0  0  0  0  0
    1.5000   -5.1962    0.0000 O   0  0  0  0  0  0  0  0  0  0  0  0
    0.7500   -3.8971    0.0000 C   0  0  0  0  0  0  0  0  0  0  0  0
    1.5000   -2.5981    0.0000 C   0  0  0  0  0  0  0  0  0  0  0  0
    0.7500   -1.2990    0.0000 C   0  0  0  0  0  0  0  0  0  0  0  0
    1.5000    0.0000    0.0000 N   0  0  0  0  0  0  0  0  0  0  0  0
    0.7500    1.2990    0.0000 C   0  0  0  0  0  0  0  0  0  0  0  0
   -0.7500    1.2990    0.0000 N   0  0  0  0  0  0  0  0  0  0  0  0
   -1.5000    0.0000    0.0000 C   0  0  0  0  0  0  0  0  0  0  0  0
   -3.0000    0.0000    0.0000 N   0  0  0  0  0  0  0  0  0  0  0  0
   -3.7500    1.2990    0.0000 C   0  0  0  0  0  0  0  0  0  0  0  0
   -3.0000    2.5981    0.0000 C   0  0  0  0  0  0  0  0  0  0  0  0
   -3.7500    3.8971    0.0000 C   0  0  0  0  0  0  0  0  0  0  0  0
   -5.2500    3.8971    0.0000 C   0  0  0  0  0  0  0  0  0  0  0  0
   -6.0000    5.1962    0.0000 F   0  0  0  0  0  0  0  0  0  0  0  0
   -6.0000    2.5981    0.0000 C   0  0  0  0  0  0  0  0  0  0  0  0
   -5.2500    1.2990    0.0000 C   0  0  0  0  0  0  0  0  0  0  0  0
   -6.0000    0.0000    0.0000 F   0  0  0  0  0  0  0  0  0  0  0  0
   -0.7500   -1.2990    0.0000 C   0  0  0  0  0  0  0  0  0  0  0  0
   -1.5000   -2.5981    0.0000 C   0  0  0  0  0  0  0  0  0  0  0  0
   -0.7500   -3.8971    0.0000 C   0  0  0  0  0  0  0  0  0  0  0  0
   -1.5000   -5.1962    0.0000 O   0  0  0  0  0  0  0  0  0  0  0  0
   -3.0000   -5.1962    0.0000 C   0  0  0  0  0  0  0  0  0  0  0  0
  1  2  1  0
  2  3  1  0
  3  4  2  0
  4  5  1  0
  5  6  2  0
  6  7  1  0
  7  8  2  0
  8  9  1  0
  9 10  1  0
 10 11  1  0
 11 12  2  0
 12 13  1  0
 13 14  2  0
 14 15  1  0
 14 16  1  0
 16 17  2  0
 17 18  1  0
  9 19  2  0
 19 20  1  0
 20 21  2  0
 21 22  1  0
 22 23  1  0
 21  3  1  0
 19  5  1  0
 17 11  1  0
M  END
>  <Molecule ChEMBL ID>  (72) 
CHEMBL346200

>  <Smiles>  (72) 
COc1cc2ncnc(Nc3ccc(F)cc3F)c2cc1OC

>  <pChEMBL Value>  (72) 
4.66

>  <similarity>  (72) 
0.10666666666666667

$$$$

     RDKit          2D

 23 26  0  0  0  0  0  0  0  0999 V2000
   -8.6640   -1.9336    0.0000 N   0  0  0  0  0  0  0  0  0  0  0  0
   -7.9140   -0.6346    0.0000 C   0  0  0  0  0  0  0  0  0  0  0  0
   -8.6640    0.6645    0.0000 N   0  0  0  0  0  0  0  0  0  0  0  0
   -7.9140    1.9635    0.0000 C   0  0  0  0  0  0  0  0  0  0  0  0
   -6.4140    1.9635    0.0000 C   0  0  0  0  0  0  0  0  0  0  0  0
   -5.6640    0.6645    0.0000 C   0  0  0  0  0  0  0  0  0  0  0  0
   -4.1640    0.6645    0.0000 C   0  0  0  0  0  0  0  0  0  0  0  0
   -3.4140    1.9635    0.0000 C   0  0  0  0  0  0  0  0  0  0  0  0
   -1.9140    1.9635    0.0000 C   0  0  0  0  0  0  0  0  0  0  0  0
   -1.0323    3.1771    0.0000 C   0  0  0  0  0  0  0  0  0  0  0  0
   -1.4958    4.6036    0.0000 C   0  0  0  0  0  0  0  0  0  0  0  0
   -0.4921    5.7184    0.0000 C   0  0  0  0  0  0  0  0  0  0  0  0
   -0.9556    7.1449    0.0000 C   0  0  0  0  0  0  0  0  0  0  0  0
   -2.4229    7.4568    0.0000 C   0  0  0  0  0  0  0  0  0  0  0  0
   -3.4266    6.3421    0.0000 C   0  0  0  0  0  0  0  0  0  0  0  0
   -2.9630    4.9155    0.0000 C   0  0  0  0  0  0  0  0  0  0  0  0
    0.3943    2.7135    0.0000 N   0  0  0  0  0  0  0  0  0  0  0  0
    0.3943    1.2135    0.0000 C   0  0  0  0  0  0  0  0  0  0  0  0
    1.2760    0.0000    0.0000 S   0  0  0  0  0  0  0  0  0  0  0  0
    0.3943   -1.2135    0.0000 C   0  0  0  0  0  0  0  0  0  0  0  0
   -1.0323   -0.7500    0.0000 C   0  0  0  0  0  0  0  0  0  0  0  0
   -1.0323    0.7500    0.0000 N   0  0  0  0  0  0  0  0  0  0  0  0
   -6.4140   -0.6346    0.0000 N   0  0  0  0  0  0  0  0  0  0  0  0
  1  2  1  0
  2  3  2  0
  3  4  1  0
  4  5  2  0
  5  6  1  0
  6  7  1  0
  7  8  2  0
  8  9  1  0
  9 10  2  0
 10 11  1  0
 11 12  2  0
 12 13  1  0
 13 14  2  0
 14 15  1  0
 15 16  2  0
 10 17  1  0
 17 18  2  0
 18 19  1  0
 19 20  1  0
 20 21  2  0
 21 22  1  0
  6 23  2  0
 23  2  1  0
 22  9  1  0
 16 11  1  0
 22 18  1  0
M  END
>  <Molecule ChEMBL ID>  (73) 
CHEMBL497114

>  <Smiles>  (73) 
Nc1nccc(/C=C/c2c(-c3ccccc3)nc3sccn23)n1

>  <pChEMBL Value>  (73) 
4.52

>  <similarity>  (73) 
0.07317073170731707

$$$$

     RDKit          2D

100103  0  0  0  0  0  0  0  0999 V2000
  -13.4291   -3.9629    0.0000 C   0  0  0  0  0  0  0  0  0  0  0  0
  -12.3143   -4.9666    0.0000 C   0  0  0  0  0  0  0  0  0  0  0  0
  -11.1996   -5.9703    0.0000 C   0  0  0  0  0  0  0  0  0  0  0  0
   -9.7730   -5.5068    0.0000 C   0  0  0  0  0  0  0  0  0  0  0  0
   -8.6583   -6.5105    0.0000 N   0  0  0  0  0  0  0  0  0  0  0  0
   -7.2317   -6.0469    0.0000 C   0  0  0  0  0  0  0  0  0  0  0  0
   -6.9199   -4.5797    0.0000 O   0  0  0  0  0  0  0  0  0  0  0  0
   -6.1170   -7.0506    0.0000 C   0  0  0  0  0  0  0  0  0  0  0  0
   -6.4289   -8.5179    0.0000 C   0  0  0  0  0  0  0  0  0  0  0  0
   -7.8555   -8.9814    0.0000 C   0  0  0  0  0  0  0  0  0  0  0  0
   -8.9702   -7.9777    0.0000 C   0  0  0  0  0  0  0  0  0  0  0  0
  -10.3968   -8.4412    0.0000 C   0  0  0  0  0  0  0  0  0  0  0  0
  -10.7086   -9.9084    0.0000 C   0  0  0  0  0  0  0  0  0  0  0  0
  -12.1352  -10.3720    0.0000 O   0  0  0  0  0  0  0  0  0  0  0  0
   -9.5939  -10.9121    0.0000 C   0  0  0  0  0  0  0  0  0  0  0  0
   -8.1673  -10.4486    0.0000 C   0  0  0  0  0  0  0  0  0  0  0  0
   -4.6904   -6.5871    0.0000 N   0  0  0  0  0  0  0  0  0  0  0  0
   -4.3786   -5.1199    0.0000 C   0  0  0  0  0  0  0  0  0  0  0  0
   -5.4933   -4.1162    0.0000 O   0  0  0  0  0  0  0  0  0  0  0  0
   -2.9520   -4.6564    0.0000 C   0  0  0  0  0  0  0  0  0  0  0  0
   -2.6401   -3.1891    0.0000 C   0  0  0  0  0  0  0  0  0  0  0  0
   -1.2135   -2.7256    0.0000 C   0  0  0  0  0  0  0  0  0  0  0  0
    0.0000   -3.6073    0.0000 C   0  0  0  0  0  0  0  0  0  0  0  0
    1.2135   -2.7256    0.0000 N   0  0  0  0  0  0  0  0  0  0  0  0
    0.7500   -1.2990    0.0000 C   0  0  0  0  0  0  0  0  0  0  0  0
    1.5000   -0.0000    0.0000 C   0  0  0  0  0  0  0  0  0  0  0  0
    0.7500    1.2990    0.0000 C   0  0  0  0  0  0  0  0  0  0  0  0
   -0.7500    1.2990    0.0000 C   0  0  0  0  0  0  0  0  0  0  0  0
   -1.5000    0.0000    0.0000 C   0  0  0  0  0  0  0  0  0  0  0  0
   -0.7500   -1.2990    0.0000 C   0  0  0  0  0  0  0  0  0  0  0  0
   -1.8373   -5.6601    0.0000 N   0  0  0  0  0  0  0  0  0  0  0  0
   -2.1491   -7.1273    0.0000 C   0  0  0  0  0  0  0  0  0  0  0  0
   -3.5757   -7.5908    0.0000 O   0  0  0  0  0  0  0  0  0  0  0  0
   -1.0344   -8.1310    0.0000 C   0  0  0  0  0  0  0  0  0  0  0  0
   -1.3463   -9.5982    0.0000 C   0  0  0  0  0  0  0  0  0  0  0  0
   -2.7729  -10.0617    0.0000 C   0  0  0  0  0  0  0  0  0  0  0  0
   -3.0847  -11.5290    0.0000 C   0  0  0  0  0  0  0  0  0  0  0  0
   -4.5113  -11.9925    0.0000 C   0  0  0  0  0  0  0  0  0  0  0  0
   -5.6260  -10.9888    0.0000 C   0  0  0  0  0  0  0  0  0  0  0  0
   -5.3142   -9.5216    0.0000 C   0  0  0  0  0  0  0  0  0  0  0  0
   -3.8876   -9.0580    0.0000 C   0  0  0  0  0  0  0  0  0  0  0  0
    0.3922   -7.6675    0.0000 N   0  0  0  0  0  0  0  0  0  0  0  0
    1.5069   -8.6712    0.0000 C   0  0  0  0  0  0  0  0  0  0  0  0
    1.1950  -10.1384    0.0000 O   0  0  0  0  0  0  0  0  0  0  0  0
    2.9335   -8.2076    0.0000 C   0  0  0  0  0  0  0  0  0  0  0  0
    3.2453   -6.7404    0.0000 N   0  0  0  0  0  0  0  0  0  0  0  0
    4.6719   -6.2769    0.0000 C   0  0  0  0  0  0  0  0  0  0  0  0
    5.7866   -7.2806    0.0000 O   0  0  0  0  0  0  0  0  0  0  0  0
    4.9838   -4.8097    0.0000 C   0  0  0  0  0  0  0  0  0  0  0  0
    6.4104   -4.3461    0.0000 C   0  0  0  0  0  0  0  0  0  0  0  0
    7.5251   -5.3498    0.0000 C   0  0  0  0  0  0  0  0  0  0  0  0
    8.9517   -4.8863    0.0000 S   0  0  0  0  0  0  0  0  0  0  0  0
   10.0664   -5.8900    0.0000 C   0  0  0  0  0  0  0  0  0  0  0  0
    3.8691   -3.8060    0.0000 N   0  0  0  0  0  0  0  0  0  0  0  0
    4.1809   -2.3387    0.0000 C   0  0  0  0  0  0  0  0  0  0  0  0
    3.0662   -1.3350    0.0000 O   0  0  0  0  0  0  0  0  0  0  0  0
    5.6075   -1.8752    0.0000 C   0  0  0  0  0  0  0  0  0  0  0  0
    6.7222   -2.8789    0.0000 C   0  0  0  0  0  0  0  0  0  0  0  0
    8.1488   -2.4154    0.0000 C   0  0  0  0  0  0  0  0  0  0  0  0
    9.2636   -3.4191    0.0000 C   0  0  0  0  0  0  0  0  0  0  0  0
   10.6901   -2.9556    0.0000 C   0  0  0  0  0  0  0  0  0  0  0  0
   11.8049   -3.9593    0.0000 N   0  0  0  0  0  0  0  0  0  0  0  0
    5.9194   -0.4080    0.0000 N   0  0  0  0  0  0  0  0  0  0  0  0
    4.8047    0.5957    0.0000 C   0  0  0  0  0  0  0  0  0  0  0  0
    3.3781    0.1322    0.0000 O   0  0  0  0  0  0  0  0  0  0  0  0
    5.1165    2.0629    0.0000 C   0  0  0  0  0  0  0  0  0  0  0  0
    4.0018    3.0666    0.0000 C   0  0  0  0  0  0  0  0  0  0  0  0
    4.3137    4.5338    0.0000 C   0  0  0  0  0  0  0  0  0  0  0  0
    3.1990    5.5375    0.0000 N   0  0  0  0  0  0  0  0  0  0  0  0
    5.7403    4.9974    0.0000 O   0  0  0  0  0  0  0  0  0  0  0  0
    6.5431    2.5264    0.0000 N   0  0  0  0  0  0  0  0  0  0  0  0
    7.6579    1.5228    0.0000 C   0  0  0  0  0  0  0  0  0  0  0  0
    7.3460    0.0555    0.0000 O   0  0  0  0  0  0  0  0  0  0  0  0
    9.0844    1.9863    0.0000 C   0  0  0  0  0  0  0  0  0  0  0  0
   10.1992    0.9826    0.0000 C   0  0  0  0  0  0  0  0  0  0  0  0
   11.6257    1.4461    0.0000 C   0  0  0  0  0  0  0  0  0  0  0  0
   11.9376    2.9133    0.0000 O   0  0  0  0  0  0  0  0  0  0  0  0
   12.7405    0.4424    0.0000 O   0  0  0  0  0  0  0  0  0  0  0  0
    9.3963    3.4535    0.0000 N   0  0  0  0  0  0  0  0  0  0  0  0
    8.2816    4.4572    0.0000 C   0  0  0  0  0  0  0  0  0  0  0  0
    6.8550    3.9937    0.0000 O   0  0  0  0  0  0  0  0  0  0  0  0
    8.5935    5.9244    0.0000 C   0  0  0  0  0  0  0  0  0  0  0  0
    7.4787    6.9281    0.0000 C   0  0  0  0  0  0  0  0  0  0  0  0
    7.7906    8.3953    0.0000 C   0  0  0  0  0  0  0  0  0  0  0  0
    6.6759    9.3990    0.0000 C   0  0  0  0  0  0  0  0  0  0  0  0
    9.2172    8.8589    0.0000 C   0  0  0  0  0  0  0  0  0  0  0  0
   10.0200    6.3879    0.0000 N   0  0  0  0  0  0  0  0  0  0  0  0
   11.1348    5.3842    0.0000 C   0  0  0  0  0  0  0  0  0  0  0  0
   10.8229    3.9170    0.0000 O   0  0  0  0  0  0  0  0  0  0  0  0
   12.5613    5.8478    0.0000 C   0  0  0  0  0  0  0  0  0  0  0  0
   13.6761    4.8441    0.0000 N   0  0  0  0  0  0  0  0  0  0  0  0
   15.1026    5.3076    0.0000 N   0  0  0  0  0  4  0  0  0  0  0  0
   16.5292    5.7711    0.0000 N   0  0  0  0  0  2  0  0  0  0  0  0
    4.0482   -9.2113    0.0000 C   0  0  0  0  0  0  0  0  0  0  0  0
    5.4748   -8.7478    0.0000 C   0  0  0  0  0  0  0  0  0  0  0  0
    3.7363  -10.6785    0.0000 C   0  0  0  0  0  0  0  0  0  0  0  0
    4.8510  -11.6822    0.0000 C   0  0  0  0  0  0  0  0  0  0  0  0
   -9.4612   -4.0396    0.0000 C   0  0  0  0  0  0  0  0  0  0  0  0
  -10.5759   -3.0359    0.0000 N   0  0  0  0  0  0  0  0  0  0  0  0
   -8.0346   -3.5760    0.0000 O   0  0  0  0  0  0  0  0  0  0  0  0
  1  2  3  0
  2  3  1  0
  4  3  1  1
  4  5  1  0
  5  6  1  0
  6  7  2  0
  6  8  1  0
  8  9  1  1
  9 10  1  0
 10 11  2  0
 11 12  1  0
 12 13  2  0
 13 14  1  0
 13 15  1  0
 15 16  2  0
  8 17  1  0
 17 18  1  0
 18 19  2  0
 18 20  1  0
 20 21  1  6
 21 22  1  0
 22 23  2  0
 23 24  1  0
 24 25  1  0
 25 26  2  0
 26 27  1  0
 27 28  2  0
 28 29  1  0
 29 30  2  0
 20 31  1  0
 31 32  1  0
 32 33  2  0
 32 34  1  0
 34 35  1  1
 35 36  1  0
 36 37  2  0
 37 38  1  0
 38 39  2  0
 39 40  1  0
 40 41  2  0
 34 42  1  0
 42 43  1  0
 43 44  2  0
 43 45  1  0
 45 46  1  1
 46 47  1  0
 47 48  2  0
 47 49  1  0
 49 50  1  1
 50 51  1  0
 51 52  1  0
 52 53  1  0
 49 54  1  0
 54 55  1  0
 55 56  2  0
 55 57  1  0
 57 58  1  1
 58 59  1  0
 59 60  1  0
 60 61  1  0
 61 62  1  0
 57 63  1  0
 63 64  1  0
 64 65  2  0
 64 66  1  0
 66 67  1  6
 67 68  1  0
 68 69  1  0
 68 70  2  0
 66 71  1  0
 71 72  1  0
 72 73  2  0
 72 74  1  0
 74 75  1  1
 75 76  1  0
 76 77  2  0
 76 78  1  0
 74 79  1  0
 79 80  1  0
 80 81  2  0
 80 82  1  0
 82 83  1  6
 83 84  1  0
 84 85  1  0
 84 86  1  0
 82 87  1  0
 87 88  1  0
 88 89  2  0
 88 90  1  0
 90 91  1  0
 91 92  2  0
 92 93  2  0
 45 94  1  0
 94 95  1  1
 94 96  1  0
 96 97  1  0
  4 98  1  0
 98 99  1  0
 98100  2  0
 16 10  1  0
 30 22  1  0
 41 36  1  0
 30 25  1  0
M  CHG  2  92   1  93  -1
M  END
>  <Molecule ChEMBL ID>  (74) 
CHEMBL2372109

>  <Smiles>  (74) 
C#CC[C@H](NC(=O)[C@H](Cc1ccc(O)cc1)NC(=O)[C@H](Cc1c[nH]c2ccccc12)NC(=O)[C@H](Cc1ccccc1)NC(=O)[C@@H](NC(=O)[C@H](CCSC)NC(=O)[C@H](CCCCN)NC(=O)[C@H](CC(N)=O)NC(=O)[C@H](CC(=O)O)NC(=O)[C@H](CC(C)C)NC(=O)CN=[N+]=[N-])[C@@H](C)CC)C(N)=O

>  <pChEMBL Value>  (74) 
4.64

>  <similarity>  (74) 
0.11851851851851852

$$$$

     RDKit          2D

 26 29  0  0  0  0  0  0  0  0999 V2000
   -2.9499    4.2246    0.0000 N   0  0  0  0  0  0  0  0  0  0  0  0
   -1.8351    3.2209    0.0000 C   0  0  0  0  0  0  0  0  0  0  0  0
   -0.4086    3.6844    0.0000 N   0  0  0  0  0  0  0  0  0  0  0  0
    0.7062    2.6807    0.0000 C   0  0  0  0  0  0  0  0  0  0  0  0
    2.1328    3.1443    0.0000 N   0  0  0  0  0  0  0  0  0  0  0  0
    2.4446    4.6115    0.0000 C   0  0  0  0  0  0  0  0  0  0  0  0
    3.8712    5.0750    0.0000 C   0  0  0  0  0  0  0  0  0  0  0  0
    4.1831    6.5422    0.0000 C   0  0  0  0  0  0  0  0  0  0  0  0
    3.0684    7.5459    0.0000 C   0  0  0  0  0  0  0  0  0  0  0  0
    1.6418    7.0824    0.0000 C   0  0  0  0  0  0  0  0  0  0  0  0
    0.5271    8.0861    0.0000 Br  0  0  0  0  0  0  0  0  0  0  0  0
    1.3299    5.6152    0.0000 C   0  0  0  0  0  0  0  0  0  0  0  0
    0.3943    1.2135    0.0000 C   0  0  0  0  0  0  0  0  0  0  0  0
    1.2760    0.0000    0.0000 C   0  0  0  0  0  0  0  0  0  0  0  0
    0.3943   -1.2135    0.0000 C   0  0  0  0  0  0  0  0  0  0  0  0
    0.8578   -2.6401    0.0000 C   0  0  0  0  0  0  0  0  0  0  0  0
   -0.1459   -3.7548    0.0000 C   0  0  0  0  0  0  0  0  0  0  0  0
   -1.6131   -3.4430    0.0000 C   0  0  0  0  0  0  0  0  0  0  0  0
   -2.6168   -4.5577    0.0000 C   0  0  0  0  0  0  0  0  0  0  0  0
   -2.1533   -5.9843    0.0000 C   0  0  0  0  0  0  0  0  0  0  0  0
   -3.1570   -7.0990    0.0000 Cl  0  0  0  0  0  0  0  0  0  0  0  0
   -0.6860   -6.2961    0.0000 C   0  0  0  0  0  0  0  0  0  0  0  0
    0.3177   -5.1814    0.0000 C   0  0  0  0  0  0  0  0  0  0  0  0
   -1.0323   -0.7500    0.0000 N   0  0  0  0  0  0  0  0  0  0  0  0
   -1.0323    0.7500    0.0000 C   0  0  0  0  0  0  0  0  0  0  0  0
   -2.1470    1.7537    0.0000 N   0  0  0  0  0  0  0  0  0  0  0  0
  1  2  1  0
  2  3  2  0
  3  4  1  0
  4  5  1  0
  5  6  1  0
  6  7  2  0
  7  8  1  0
  8  9  2  0
  9 10  1  0
 10 11  1  0
 10 12  2  0
  4 13  2  0
 13 14  1  0
 14 15  2  0
 15 16  1  0
 16 17  1  0
 17 18  2  0
 18 19  1  0
 19 20  2  0
 20 21  1  0
 20 22  1  0
 22 23  2  0
 15 24  1  0
 24 25  1  0
 25 26  2  0
 26  2  1  0
 12  6  1  0
 25 13  1  0
 23 17  1  0
M  END
>  <Molecule ChEMBL ID>  (75) 
CHEMBL1956885

>  <Smiles>  (75) 
Nc1nc(Nc2cccc(Br)c2)c2cc(Cc3ccc(Cl)cc3)[nH]c2n1

>  <pChEMBL Value>  (75) 
4.37

>  <similarity>  (75) 
0.13580246913580246

$$$$

     RDKit          2D

 68 70  0  0  0  0  0  0  0  0999 V2000
    9.9722   -1.2990    0.0000 C   0  0  0  0  0  0  0  0  0  0  0  0
    8.4722   -1.2990    0.0000 C   0  0  0  0  0  0  0  0  0  0  0  0
    7.7222   -2.5981    0.0000 C   0  0  0  0  0  0  0  0  0  0  0  0
    7.7222    0.0000    0.0000 C   0  0  0  0  0  0  0  0  0  0  0  0
    6.2222    0.0000    0.0000 C   0  0  0  0  0  0  0  0  0  0  0  0
    6.0414   -1.4891    0.0000 N   0  0  0  0  0  0  0  0  0  0  0  0
    5.5095   -2.8916    0.0000 C   0  0  0  0  0  0  0  0  0  0  0  0
    6.8376   -3.5887    0.0000 O   0  0  0  0  0  0  0  0  0  0  0  0
    4.6574   -4.1261    0.0000 C   0  0  0  0  0  0  0  0  0  0  0  0
    3.5346   -5.1207    0.0000 N   0  0  0  0  0  0  0  0  0  0  0  0
    2.2064   -5.8178    0.0000 C   0  0  0  0  0  0  0  0  0  0  0  0
    2.7383   -7.2204    0.0000 O   0  0  0  0  0  0  0  0  0  0  0  0
    0.7500   -6.1768    0.0000 C   0  0  0  0  0  0  0  0  0  0  0  0
    0.9308   -7.6659    0.0000 C   0  0  0  0  0  0  0  0  0  0  0  0
   -0.2684   -8.5670    0.0000 C   0  0  0  0  0  0  0  0  0  0  0  0
   -0.0876  -10.0560    0.0000 C   0  0  0  0  0  0  0  0  0  0  0  0
    1.2924  -10.6440    0.0000 O   0  0  0  0  0  0  0  0  0  0  0  0
   -1.2867  -10.9572    0.0000 O   0  0  0  0  0  0  0  0  0  0  0  0
   -0.7500   -6.1768    0.0000 N   0  0  0  0  0  0  0  0  0  0  0  0
   -2.2064   -5.8178    0.0000 C   0  0  0  0  0  0  0  0  0  0  0  0
   -2.7383   -7.2204    0.0000 O   0  0  0  0  0  0  0  0  0  0  0  0
   -3.5346   -5.1207    0.0000 C   0  0  0  0  0  0  0  0  0  0  0  0
   -4.3867   -6.3552    0.0000 C   0  0  0  0  0  0  0  0  0  0  0  0
   -4.6574   -4.1261    0.0000 N   0  0  0  0  0  0  0  0  0  0  0  0
   -5.5095   -2.8916    0.0000 C   0  0  0  0  0  0  0  0  0  0  0  0
   -6.8376   -3.5887    0.0000 O   0  0  0  0  0  0  0  0  0  0  0  0
   -6.0414   -1.4891    0.0000 C   0  0  0  0  0  0  0  0  0  0  0  0
   -7.4978   -1.8480    0.0000 C   0  0  0  0  0  0  0  0  0  0  0  0
   -8.5369   -0.7662    0.0000 C   0  0  0  0  0  0  0  0  0  0  0  0
   -8.1195    0.6745    0.0000 C   0  0  0  0  0  0  0  0  0  0  0  0
   -9.1586    1.7563    0.0000 C   0  0  0  0  0  0  0  0  0  0  0  0
  -10.6150    1.3974    0.0000 C   0  0  0  0  0  0  0  0  0  0  0  0
  -11.6541    2.4792    0.0000 O   0  0  0  0  0  0  0  0  0  0  0  0
  -11.0324   -0.0434    0.0000 C   0  0  0  0  0  0  0  0  0  0  0  0
   -9.9933   -1.1252    0.0000 C   0  0  0  0  0  0  0  0  0  0  0  0
   -6.2222    0.0000    0.0000 N   0  0  0  0  0  0  0  0  0  0  0  0
   -6.0414    1.4891    0.0000 C   0  0  0  0  0  0  0  0  0  0  0  0
   -7.4978    1.8480    0.0000 O   0  0  0  0  0  0  0  0  0  0  0  0
   -5.5095    2.8916    0.0000 C   0  0  0  0  0  0  0  0  0  0  0  0
   -6.8376    3.5887    0.0000 C   0  0  0  0  0  0  0  0  0  0  0  0
   -6.8980    5.0875    0.0000 C   0  0  0  0  0  0  0  0  0  0  0  0
   -5.6303    5.8892    0.0000 C   0  0  0  0  0  0  0  0  0  0  0  0
   -5.6907    7.3879    0.0000 C   0  0  0  0  0  0  0  0  0  0  0  0
   -7.0188    8.0850    0.0000 C   0  0  0  0  0  0  0  0  0  0  0  0
   -7.0792    9.5838    0.0000 O   0  0  0  0  0  0  0  0  0  0  0  0
   -8.2866    7.2833    0.0000 C   0  0  0  0  0  0  0  0  0  0  0  0
   -8.2262    5.7845    0.0000 C   0  0  0  0  0  0  0  0  0  0  0  0
   -4.6574    4.1261    0.0000 N   0  0  0  0  0  0  0  0  0  0  0  0
   -3.5346    5.1207    0.0000 C   0  0  0  0  0  0  0  0  0  0  0  0
   -4.3867    6.3552    0.0000 O   0  0  0  0  0  0  0  0  0  0  0  0
   -2.2064    5.8178    0.0000 C   0  0  0  0  0  0  0  0  0  0  0  0
   -0.7500    6.1768    0.0000 C   0  0  0  0  0  0  0  0  0  0  0  0
    0.7500    6.1768    0.0000 C   0  0  0  0  0  0  0  0  0  0  0  0
    0.9308    7.6659    0.0000 C   0  0  0  0  0  0  0  0  0  0  0  0
    2.3108    8.2538    0.0000 N   0  0  0  0  0  0  0  0  0  0  0  0
   -0.2684    8.5670    0.0000 O   0  0  0  0  0  0  0  0  0  0  0  0
    2.2064    5.8178    0.0000 N   0  0  0  0  0  0  0  0  0  0  0  0
    3.5346    5.1207    0.0000 C   0  0  0  0  0  0  0  0  0  0  0  0
    4.3867    6.3552    0.0000 O   0  0  0  0  0  0  0  0  0  0  0  0
    4.6574    4.1261    0.0000 C   0  0  0  0  0  0  0  0  0  0  0  0
    5.7801    5.1207    0.0000 C   0  0  0  0  0  0  0  0  0  0  0  0
    7.2029    4.6457    0.0000 C   0  0  0  0  0  0  0  0  0  0  0  0
    8.3257    5.6404    0.0000 C   0  0  0  0  0  0  0  0  0  0  0  0
    8.0257    7.1101    0.0000 O   0  0  0  0  0  0  0  0  0  0  0  0
    9.7485    5.1654    0.0000 O   0  0  0  0  0  0  0  0  0  0  0  0
    5.5095    2.8916    0.0000 N   0  0  0  0  0  0  0  0  0  0  0  0
    6.0414    1.4891    0.0000 C   0  0  0  0  0  0  0  0  0  0  0  0
    7.4978    1.8480    0.0000 O   0  0  0  0  0  0  0  0  0  0  0  0
  1  2  1  0
  2  3  1  0
  2  4  1  0
  5  4  1  6
  5  6  1  0
  6  7  1  0
  7  8  2  0
  7  9  1  0
  9 10  1  0
 10 11  1  0
 11 12  2  0
 11 13  1  0
 13 14  1  6
 14 15  1  0
 15 16  1  0
 16 17  2  0
 16 18  1  0
 13 19  1  0
 19 20  1  0
 20 21  2  0
 20 22  1  0
 22 23  1  6
 22 24  1  0
 24 25  1  0
 25 26  2  0
 25 27  1  0
 27 28  1  6
 28 29  1  0
 29 30  2  0
 30 31  1  0
 31 32  2  0
 32 33  1  0
 32 34  1  0
 34 35  2  0
 27 36  1  0
 36 37  1  0
 37 38  2  0
 37 39  1  0
 39 40  1  6
 40 41  1  0
 41 42  2  0
 42 43  1  0
 43 44  2  0
 44 45  1  0
 44 46  1  0
 46 47  2  0
 39 48  1  0
 48 49  1  0
 49 50  2  0
 49 51  1  0
 51 52  1  0
 52 53  1  0
 53 54  1  1
 54 55  1  0
 54 56  2  0
 53 57  1  0
 57 58  1  0
 58 59  2  0
 58 60  1  0
 60 61  1  6
 61 62  1  0
 62 63  1  0
 63 64  2  0
 63 65  1  0
 60 66  1  0
 66 67  1  0
 67 68  2  0
 67  5  1  0
 35 29  1  0
 47 41  1  0
M  END
>  <Molecule ChEMBL ID>  (76) 
CHEMBL1082940

>  <Smiles>  (76) 
CC(C)C[C@@H]1NC(=O)CNC(=O)[C@H](CCC(=O)O)NC(=O)[C@H](C)NC(=O)[C@H](Cc2ccc(O)cc2)NC(=O)[C@H](Cc2ccc(O)cc2)NC(=O)CC[C@@H](C(N)=O)NC(=O)[C@H](CCC(=O)O)NC1=O

>  <pChEMBL Value>  (76) 
4.6

>  <similarity>  (76) 
0.1

$$$$

     RDKit          2D

 26 28  0  0  0  0  0  0  0  0999 V2000
    6.0000   -7.7942    0.0000 C   0  0  0  0  0  0  0  0  0  0  0  0
    5.2500   -6.4952    0.0000 O   0  0  0  0  0  0  0  0  0  0  0  0
    3.7500   -6.4952    0.0000 C   0  0  0  0  0  0  0  0  0  0  0  0
    3.0000   -5.1962    0.0000 C   0  0  0  0  0  0  0  0  0  0  0  0
    1.5000   -5.1962    0.0000 O   0  0  0  0  0  0  0  0  0  0  0  0
    0.7500   -3.8971    0.0000 C   0  0  0  0  0  0  0  0  0  0  0  0
    1.5000   -2.5981    0.0000 C   0  0  0  0  0  0  0  0  0  0  0  0
    0.7500   -1.2990    0.0000 C   0  0  0  0  0  0  0  0  0  0  0  0
    1.5000    0.0000    0.0000 N   0  0  0  0  0  0  0  0  0  0  0  0
    0.7500    1.2990    0.0000 N   0  0  0  0  0  0  0  0  0  0  0  0
   -0.7500    1.2990    0.0000 C   0  0  0  0  0  0  0  0  0  0  0  0
   -1.5000    0.0000    0.0000 C   0  0  0  0  0  0  0  0  0  0  0  0
   -3.0000    0.0000    0.0000 N   0  0  0  0  0  0  0  0  0  0  0  0
   -3.7500    1.2990    0.0000 C   0  0  0  0  0  0  0  0  0  0  0  0
   -3.0000    2.5981    0.0000 C   0  0  0  0  0  0  0  0  0  0  0  0
   -3.7500    3.8971    0.0000 C   0  0  0  0  0  0  0  0  0  0  0  0
   -5.2500    3.8971    0.0000 C   0  0  0  0  0  0  0  0  0  0  0  0
   -6.0000    5.1962    0.0000 Cl  0  0  0  0  0  0  0  0  0  0  0  0
   -6.0000    2.5981    0.0000 C   0  0  0  0  0  0  0  0  0  0  0  0
   -5.2500    1.2990    0.0000 C   0  0  0  0  0  0  0  0  0  0  0  0
   -6.0000    0.0000    0.0000 F   0  0  0  0  0  0  0  0  0  0  0  0
   -0.7500   -1.2990    0.0000 C   0  0  0  0  0  0  0  0  0  0  0  0
   -1.5000   -2.5981    0.0000 C   0  0  0  0  0  0  0  0  0  0  0  0
   -0.7500   -3.8971    0.0000 C   0  0  0  0  0  0  0  0  0  0  0  0
   -1.5000   -5.1962    0.0000 O   0  0  0  0  0  0  0  0  0  0  0  0
   -3.0000   -5.1962    0.0000 C   0  0  0  0  0  0  0  0  0  0  0  0
  1  2  1  0
  2  3  1  0
  3  4  1  0
  4  5  1  0
  5  6  1  0
  6  7  2  0
  7  8  1  0
  8  9  2  0
  9 10  1  0
 10 11  2  0
 11 12  1  0
 12 13  1  0
 13 14  1  0
 14 15  2  0
 15 16  1  0
 16 17  2  0
 17 18  1  0
 17 19  1  0
 19 20  2  0
 20 21  1  0
 12 22  2  0
 22 23  1  0
 23 24  2  0
 24 25  1  0
 25 26  1  0
 24  6  1  0
 22  8  1  0
 20 14  1  0
M  END
>  <Molecule ChEMBL ID>  (77) 
CHEMBL150825

>  <Smiles>  (77) 
COCCOc1cc2nncc(Nc3ccc(Cl)cc3F)c2cc1OC

>  <pChEMBL Value>  (77) 
4.2

>  <similarity>  (77) 
0.10588235294117647

$$$$

     RDKit          2D

113116  0  0  0  0  0  0  0  0999 V2000
   -7.3244   21.7818    0.0000 C   0  0  0  0  0  0  0  0  0  0  0  0
   -6.9802   20.3218    0.0000 C   0  0  0  0  0  0  0  0  0  0  0  0
   -5.5438   19.8898    0.0000 C   0  0  0  0  0  0  0  0  0  0  0  0
   -4.4514   20.9179    0.0000 C   0  0  0  0  0  0  0  0  0  0  0  0
   -5.1996   18.4298    0.0000 C   0  0  0  0  0  0  0  0  0  0  0  0
   -3.7162   18.6522    0.0000 N   0  0  0  0  0  0  0  0  0  0  0  0
   -2.2164   18.6274    0.0000 C   0  0  0  0  0  0  0  0  0  0  0  0
   -2.0678   20.1201    0.0000 O   0  0  0  0  0  0  0  0  0  0  0  0
   -0.7411   18.3561    0.0000 C   0  0  0  0  0  0  0  0  0  0  0  0
   -0.3489   19.8039    0.0000 C   0  0  0  0  0  0  0  0  0  0  0  0
    1.1010   20.1882    0.0000 C   0  0  0  0  0  0  0  0  0  0  0  0
    2.1588   19.1246    0.0000 C   0  0  0  0  0  0  0  0  0  0  0  0
    3.6087   19.5088    0.0000 C   0  0  0  0  0  0  0  0  0  0  0  0
    4.0009   20.9566    0.0000 C   0  0  0  0  0  0  0  0  0  0  0  0
    5.4509   21.3409    0.0000 O   0  0  0  0  0  0  0  0  0  0  0  0
    2.9432   22.0202    0.0000 C   0  0  0  0  0  0  0  0  0  0  0  0
    1.4932   21.6360    0.0000 C   0  0  0  0  0  0  0  0  0  0  0  0
    0.6693   17.8457    0.0000 N   0  0  0  0  0  0  0  0  0  0  0  0
    1.9766   17.1100    0.0000 C   0  0  0  0  0  0  0  0  0  0  0  0
    2.8176   18.3521    0.0000 O   0  0  0  0  0  0  0  0  0  0  0  0
    3.1449   16.1693    0.0000 C   0  0  0  0  0  0  0  0  0  0  0  0
    4.1789   17.2559    0.0000 C   0  0  0  0  0  0  0  0  0  0  0  0
    5.6370   16.9037    0.0000 C   0  0  0  0  0  0  0  0  0  0  0  0
    6.6710   17.9904    0.0000 C   0  0  0  0  0  0  0  0  0  0  0  0
    6.2470   19.4292    0.0000 O   0  0  0  0  0  0  0  0  0  0  0  0
    8.1291   17.6382    0.0000 O   0  0  0  0  0  0  0  0  0  0  0  0
    4.1424   15.0490    0.0000 N   0  0  0  0  0  0  0  0  0  0  0  0
    4.9420   13.7799    0.0000 C   0  0  0  0  0  0  0  0  0  0  0  0
    6.2728   14.4719    0.0000 O   0  0  0  0  0  0  0  0  0  0  0  0
    5.5217   12.3965    0.0000 C   0  0  0  0  0  0  0  0  0  0  0  0
    6.9483   12.8600    0.0000 C   0  0  0  0  0  0  0  0  0  0  0  0
    8.0630   11.8563    0.0000 C   0  0  0  0  0  0  0  0  0  0  0  0
    7.2602   14.3272    0.0000 C   0  0  0  0  0  0  0  0  0  0  0  0
    8.6867   14.7907    0.0000 C   0  0  0  0  0  0  0  0  0  0  0  0
    5.8658   10.9365    0.0000 N   0  0  0  0  0  0  0  0  0  0  0  0
    5.9650    9.4398    0.0000 C   0  0  0  0  0  0  0  0  0  0  0  0
    7.4648    9.4150    0.0000 O   0  0  0  0  0  0  0  0  0  0  0  0
    5.8164    7.9471    0.0000 C   0  0  0  0  0  0  0  0  0  0  0  0
    7.2917    7.6758    0.0000 C   0  0  0  0  0  0  0  0  0  0  0  0
    7.7943    6.2625    0.0000 C   0  0  0  0  0  0  0  0  0  0  0  0
    9.2696    5.9912    0.0000 C   0  0  0  0  0  0  0  0  0  0  0  0
   10.2422    7.1332    0.0000 O   0  0  0  0  0  0  0  0  0  0  0  0
    9.7722    4.5779    0.0000 O   0  0  0  0  0  0  0  0  0  0  0  0
    5.4242    6.4993    0.0000 N   0  0  0  0  0  0  0  0  0  0  0  0
    4.7990    5.1358    0.0000 C   0  0  0  0  0  0  0  0  0  0  0  0
    6.1062    4.4002    0.0000 O   0  0  0  0  0  0  0  0  0  0  0  0
    3.9579    3.8938    0.0000 C   0  0  0  0  0  0  0  0  0  0  0  0
    5.1263    2.9530    0.0000 C   0  0  0  0  0  0  0  0  0  0  0  0
    4.8957    1.4709    0.0000 C   0  0  0  0  0  0  0  0  0  0  0  0
    3.4968    0.9294    0.0000 O   0  0  0  0  0  0  0  0  0  0  0  0
    6.0640    0.5301    0.0000 O   0  0  0  0  0  0  0  0  0  0  0  0
    2.9239    2.8072    0.0000 N   0  0  0  0  0  0  0  0  0  0  0  0
    1.7251    1.9055    0.0000 C   0  0  0  0  0  0  0  0  0  0  0  0
    2.5247    0.6364    0.0000 O   0  0  0  0  0  0  0  0  0  0  0  0
    0.3943    1.2135    0.0000 C   0  0  0  0  0  0  0  0  0  0  0  0
    1.2760    0.0000    0.0000 C   0  0  0  0  0  0  0  0  0  0  0  0
    0.3943   -1.2135    0.0000 C   0  0  0  0  0  0  0  0  0  0  0  0
   -1.0323   -0.7500    0.0000 C   0  0  0  0  0  0  0  0  0  0  0  0
   -1.0323    0.7500    0.0000 N   0  0  0  0  0  0  0  0  0  0  0  0
   -2.5157    0.5276    0.0000 C   0  0  0  0  0  0  0  0  0  0  0  0
   -2.4166   -0.9691    0.0000 O   0  0  0  0  0  0  0  0  0  0  0  0
   -4.0155    0.5524    0.0000 C   0  0  0  0  0  0  0  0  0  0  0  0
   -4.1641   -0.9402    0.0000 C   0  0  0  0  0  0  0  0  0  0  0  0
   -5.5310   -1.5579    0.0000 C   0  0  0  0  0  0  0  0  0  0  0  0
   -6.7494   -0.6829    0.0000 C   0  0  0  0  0  0  0  0  0  0  0  0
   -8.1163   -1.3005    0.0000 C   0  0  0  0  0  0  0  0  0  0  0  0
   -8.2649   -2.7932    0.0000 C   0  0  0  0  0  0  0  0  0  0  0  0
   -9.6318   -3.4108    0.0000 O   0  0  0  0  0  0  0  0  0  0  0  0
   -7.0465   -3.6681    0.0000 C   0  0  0  0  0  0  0  0  0  0  0  0
   -5.6796   -3.0505    0.0000 C   0  0  0  0  0  0  0  0  0  0  0  0
   -5.4908    0.8237    0.0000 N   0  0  0  0  0  0  0  0  0  0  0  0
   -6.9012    1.3342    0.0000 C   0  0  0  0  0  0  0  0  0  0  0  0
   -7.5264   -0.0293    0.0000 O   0  0  0  0  0  0  0  0  0  0  0  0
   -8.2085    2.0698    0.0000 C   0  0  0  0  0  0  0  0  0  0  0  0
   -9.0495    0.8278    0.0000 C   0  0  0  0  0  0  0  0  0  0  0  0
  -10.5457    0.9352    0.0000 C   0  0  0  0  0  0  0  0  0  0  0  0
  -11.3868   -0.3068    0.0000 C   0  0  0  0  0  0  0  0  0  0  0  0
  -10.7317   -1.6562    0.0000 O   0  0  0  0  0  0  0  0  0  0  0  0
  -12.8829   -0.1995    0.0000 O   0  0  0  0  0  0  0  0  0  0  0  0
   -9.3768    3.0106    0.0000 N   0  0  0  0  0  0  0  0  0  0  0  0
  -10.3743    4.1308    0.0000 C   0  0  0  0  0  0  0  0  0  0  0  0
  -11.5731    3.2292    0.0000 O   0  0  0  0  0  0  0  0  0  0  0  0
  -11.1739    5.3999    0.0000 C   0  0  0  0  0  0  0  0  0  0  0  0
  -12.5047    4.7079    0.0000 C   0  0  0  0  0  0  0  0  0  0  0  0
  -13.7694    5.5145    0.0000 C   0  0  0  0  0  0  0  0  0  0  0  0
  -15.1003    4.8224    0.0000 C   0  0  0  0  0  0  0  0  0  0  0  0
  -16.3650    5.6290    0.0000 N   0  0  0  0  0  0  0  0  0  0  0  0
  -15.1664    3.3239    0.0000 O   0  0  0  0  0  0  0  0  0  0  0  0
  -11.7536    6.7834    0.0000 N   0  0  0  0  0  0  0  0  0  0  0  0
  -12.0978    8.2434    0.0000 C   0  0  0  0  0  0  0  0  0  0  0  0
  -13.5812    8.0210    0.0000 O   0  0  0  0  0  0  0  0  0  0  0  0
  -12.1969    9.7401    0.0000 C   0  0  0  0  0  0  0  0  0  0  0  0
  -13.6967    9.7649    0.0000 N   0  0  0  0  0  0  0  0  0  0  0  0
  -12.0483   11.2327    0.0000 C   0  0  0  0  0  0  0  0  0  0  0  0
  -11.6561   12.6805    0.0000 S   0  0  0  0  0  0  0  0  0  0  0  0
  -11.0309   14.0440    0.0000 S   0  0  0  0  0  0  0  0  0  0  0  0
  -10.1899   15.2860    0.0000 C   0  0  0  0  0  0  0  0  0  0  0  0
   -9.1558   16.3727    0.0000 C   0  0  0  0  0  0  0  0  0  0  0  0
  -10.1534   17.4929    0.0000 C   0  0  0  0  0  0  0  0  0  0  0  0
  -11.6223   17.1891    0.0000 O   0  0  0  0  0  0  0  0  0  0  0  0
   -9.6820   18.9169    0.0000 N   0  0  0  0  0  0  0  0  0  0  0  0
  -10.6795   20.0372    0.0000 C   0  0  0  0  0  0  0  0  0  0  0  0
  -10.2081   21.4612    0.0000 C   0  0  0  0  0  0  0  0  0  0  0  0
  -11.2057   22.5814    0.0000 C   0  0  0  0  0  0  0  0  0  0  0  0
  -10.7343   24.0054    0.0000 C   0  0  0  0  0  0  0  0  0  0  0  0
  -11.7318   25.1256    0.0000 C   0  0  0  0  0  0  0  0  0  0  0  0
  -11.2604   26.5496    0.0000 N   0  0  0  0  0  0  0  0  0  0  0  0
  -12.1484   19.7334    0.0000 C   0  0  0  0  0  0  0  0  0  0  0  0
  -13.1460   20.8536    0.0000 N   0  0  0  0  0  0  0  0  0  0  0  0
  -12.6198   18.3094    0.0000 O   0  0  0  0  0  0  0  0  0  0  0  0
   -7.9570   17.2743    0.0000 N   0  0  0  0  0  0  0  0  0  0  0  0
   -6.6262   17.9663    0.0000 C   0  0  0  0  0  0  0  0  0  0  0  0
   -7.2060   19.3498    0.0000 O   0  0  0  0  0  0  0  0  0  0  0  0
  1  2  1  0
  2  3  1  0
  3  4  1  6
  3  5  1  0
  5  6  1  6
  6  7  1  0
  7  8  2  0
  7  9  1  0
  9 10  1  6
 10 11  1  0
 11 12  2  0
 12 13  1  0
 13 14  2  0
 14 15  1  0
 14 16  1  0
 16 17  2  0
  9 18  1  0
 18 19  1  0
 19 20  2  0
 19 21  1  0
 21 22  1  6
 22 23  1  0
 23 24  1  0
 24 25  2  0
 24 26  1  0
 21 27  1  0
 27 28  1  0
 28 29  2  0
 28 30  1  0
 30 31  1  0
 31 32  1  6
 31 33  1  0
 33 34  1  0
 30 35  1  6
 35 36  1  0
 36 37  2  0
 36 38  1  0
 38 39  1  6
 39 40  1  0
 40 41  1  0
 41 42  2  0
 41 43  1  0
 38 44  1  0
 44 45  1  0
 45 46  2  0
 45 47  1  0
 47 48  1  6
 48 49  1  0
 49 50  2  0
 49 51  1  0
 47 52  1  0
 52 53  1  0
 53 54  2  0
 53 55  1  0
 55 56  1  6
 56 57  1  0
 57 58  1  0
 58 59  1  0
 59 60  1  0
 60 61  2  0
 60 62  1  0
 62 63  1  6
 63 64  1  0
 64 65  2  0
 65 66  1  0
 66 67  2  0
 67 68  1  0
 67 69  1  0
 69 70  2  0
 62 71  1  0
 71 72  1  0
 72 73  2  0
 72 74  1  0
 74 75  1  6
 75 76  1  0
 76 77  1  0
 77 78  2  0
 77 79  1  0
 74 80  1  0
 80 81  1  0
 81 82  2  0
 81 83  1  0
 83 84  1  6
 84 85  1  0
 85 86  1  0
 86 87  1  0
 86 88  2  0
 83 89  1  0
 89 90  1  0
 90 91  2  0
 90 92  1  0
 92 93  1  1
 92 94  1  0
 94 95  1  0
 95 96  1  0
 96 97  1  0
 97 98  1  0
 98 99  1  1
 99100  2  0
 99101  1  0
101102  1  0
102103  1  6
103104  1  0
104105  1  0
105106  1  0
106107  1  0
102108  1  0
108109  1  0
108110  2  0
 98111  1  0
111112  1  0
112113  2  0
112  5  1  0
 17 11  1  0
 59 55  1  0
 70 64  1  0
M  END
>  <Molecule ChEMBL ID>  (78) 
CHEMBL4062433

>  <Smiles>  (78) 
CC[C@H](C)[C@@H]1NC(=O)[C@H](Cc2ccc(O)cc2)NC(=O)[C@H](CCC(=O)O)NC(=O)[C@H]([C@@H](C)CC)NC(=O)[C@H](CCC(=O)O)NC(=O)[C@H](CC(=O)O)NC(=O)[C@@H]2CCCN2C(=O)[C@H](Cc2ccc(O)cc2)NC(=O)[C@H](CCC(=O)O)NC(=O)[C@H](CCC(N)=O)NC(=O)[C@@H](N)CSSC[C@@H](C(=O)N[C@@H](CCCCN)C(N)=O)NC1=O

>  <pChEMBL Value>  (78) 
4.3

>  <similarity>  (78) 
0.08333333333333333

$$$$

     RDKit          2D

 39 44  0  0  0  0  0  0  0  0999 V2000
    3.7500   -6.4952    0.0000 O   0  0  0  0  0  0  0  0  0  0  0  0
    3.0000   -5.1962    0.0000 C   0  0  0  0  0  0  0  0  0  0  0  0
    1.5000   -5.1962    0.0000 C   0  0  0  0  0  0  0  0  0  0  0  0
    0.7500   -3.8971    0.0000 C   0  0  0  0  0  0  0  0  0  0  0  0
    1.5000   -2.5981    0.0000 C   0  0  0  0  0  0  0  0  0  0  0  0
    0.7500   -1.2990    0.0000 C   0  0  0  0  0  0  0  0  0  0  0  0
    1.5000   -0.0000    0.0000 C   0  0  0  0  0  0  0  0  0  0  0  0
    0.7500    1.2990    0.0000 C   0  0  0  0  0  0  0  0  0  0  0  0
    1.5000    2.5981    0.0000 C   0  0  0  0  0  0  0  0  0  0  0  0
    0.7500    3.8971    0.0000 C   0  0  0  0  0  0  0  0  0  0  0  0
   -0.2268    4.0171    0.0000 O   0  0  0  0  0  0  0  0  0  0  0  0
    1.5000    5.1962    0.0000 C   0  0  0  0  0  0  0  0  0  0  0  0
    3.0000    5.1962    0.0000 C   0  0  0  0  0  0  0  0  0  0  0  0
    3.7500    6.4952    0.0000 O   0  0  0  0  0  0  0  0  0  0  0  0
    3.7500    3.8971    0.0000 C   0  0  0  0  0  0  0  0  0  0  0  0
    3.0000    2.5981    0.0000 C   0  0  0  0  0  0  0  0  0  0  0  0
    3.7500    1.2990    0.0000 O   0  0  0  0  0  0  0  0  0  0  0  0
    5.2500    1.2990    0.0000 C   0  0  0  0  0  0  0  0  0  0  0  0
    6.0000   -0.0000    0.0000 C   0  0  0  0  0  0  0  0  0  0  0  0
    5.2500   -1.2990    0.0000 C   0  0  0  0  0  0  0  0  0  0  0  0
    6.0000   -2.5981    0.0000 C   0  0  0  0  0  0  0  0  0  0  0  0
    7.5000   -2.5981    0.0000 C   0  0  0  0  0  0  0  0  0  0  0  0
    8.2500   -3.8971    0.0000 O   0  0  0  0  0  0  0  0  0  0  0  0
    8.2500   -1.2990    0.0000 C   0  0  0  0  0  0  0  0  0  0  0  0
    7.5000   -0.0000    0.0000 C   0  0  0  0  0  0  0  0  0  0  0  0
    6.0000    2.5981    0.0000 C   0  0  0  0  0  0  0  0  0  0  0  0
    7.5000    2.5981    0.0000 O   0  0  0  0  0  0  0  0  0  0  0  0
    5.2500    3.8971    0.0000 C   0  0  0  0  0  0  0  0  0  0  0  0
   -0.7500    1.2990    0.0000 C   0  0  0  0  0  0  0  0  0  0  0  0
   -1.5000    2.5981    0.0000 C   0  0  0  0  0  0  0  0  0  0  0  0
   -1.1155    3.5040    0.0000 O   0  0  0  0  0  0  0  0  0  0  0  0
   -3.0000    2.5981    0.0000 C   0  0  0  0  0  0  0  0  0  0  0  0
   -3.7500    1.2990    0.0000 C   0  0  0  0  0  0  0  0  0  0  0  0
   -5.2500    1.2990    0.0000 O   0  0  0  0  0  0  0  0  0  0  0  0
   -3.0000   -0.0000    0.0000 C   0  0  0  0  0  0  0  0  0  0  0  0
   -1.5000   -0.0000    0.0000 C   0  0  0  0  0  0  0  0  0  0  0  0
   -0.7500   -1.2990    0.0000 O   0  0  0  0  0  0  0  0  0  0  0  0
    3.0000   -2.5981    0.0000 C   0  0  0  0  0  0  0  0  0  0  0  0
    3.7500   -3.8971    0.0000 C   0  0  0  0  0  0  0  0  0  0  0  0
  1  2  1  0
  2  3  2  0
  3  4  1  0
  4  5  2  0
  6  5  1  1
  6  7  1  0
  7  8  1  0
  8  9  1  6
  9 10  2  0
 10 11  1  0
 10 12  1  0
 12 13  2  0
 13 14  1  0
 13 15  1  0
 15 16  2  0
 16 17  1  0
 17 18  1  0
 18 19  1  1
 19 20  2  0
 20 21  1  0
 21 22  2  0
 22 23  1  0
 22 24  1  0
 24 25  2  0
 18 26  1  0
 26 27  1  6
 26 28  1  0
  8 29  1  0
 29 30  2  0
 30 31  1  0
 30 32  1  0
 32 33  2  0
 33 34  1  0
 33 35  1  0
 35 36  2  0
 36 37  1  0
  5 38  1  0
 38 39  2  0
 39  2  1  0
 37  6  1  0
 16  9  1  0
 25 19  1  0
 36 29  1  0
 28 15  1  0
M  END
>  <Molecule ChEMBL ID>  (79) 
CHEMBL2335722

>  <Smiles>  (79) 
Oc1ccc([C@@H]2C[C@@H](c3c(O)cc(O)c4c3O[C@H](c3ccc(O)cc3)[C@@H](O)C4)c3c(O)cc(O)cc3O2)cc1

>  <pChEMBL Value>  (79) 
4.3

>  <similarity>  (79) 
0.06976744186046512

$$$$

     RDKit          2D

 29 33  0  0  0  0  0  0  0  0999 V2000
   -9.2054   -6.6962    0.0000 N   0  0  0  0  0  0  0  0  0  0  0  0
   -7.9063   -5.9462    0.0000 C   0  0  0  0  0  0  0  0  0  0  0  0
   -7.9063   -4.4462    0.0000 N   0  0  0  0  0  0  0  0  0  0  0  0
   -6.6073   -3.6962    0.0000 C   0  0  0  0  0  0  0  0  0  0  0  0
   -6.6073   -2.1962    0.0000 N   0  0  0  0  0  0  0  0  0  0  0  0
   -7.9063   -1.4462    0.0000 C   0  0  0  0  0  0  0  0  0  0  0  0
   -7.9063    0.0538    0.0000 C   0  0  0  0  0  0  0  0  0  0  0  0
   -9.2054    0.8038    0.0000 C   0  0  0  0  0  0  0  0  0  0  0  0
  -10.5044    0.0538    0.0000 C   0  0  0  0  0  0  0  0  0  0  0  0
  -10.5044   -1.4462    0.0000 C   0  0  0  0  0  0  0  0  0  0  0  0
  -11.8035   -2.1962    0.0000 Br  0  0  0  0  0  0  0  0  0  0  0  0
   -9.2054   -2.1962    0.0000 C   0  0  0  0  0  0  0  0  0  0  0  0
   -5.3083   -4.4462    0.0000 C   0  0  0  0  0  0  0  0  0  0  0  0
   -3.8817   -3.9826    0.0000 C   0  0  0  0  0  0  0  0  0  0  0  0
   -3.0000   -5.1962    0.0000 C   0  0  0  0  0  0  0  0  0  0  0  0
   -1.5000   -5.1962    0.0000 C   0  0  0  0  0  0  0  0  0  0  0  0
   -0.7500   -3.8971    0.0000 C   0  0  0  0  0  0  0  0  0  0  0  0
    0.7500   -3.8971    0.0000 C   0  0  0  0  0  0  0  0  0  0  0  0
    1.5000   -2.5981    0.0000 C   0  0  0  0  0  0  0  0  0  0  0  0
    0.7500   -1.2990    0.0000 C   0  0  0  0  0  0  0  0  0  0  0  0
    1.5000    0.0000    0.0000 C   0  0  0  0  0  0  0  0  0  0  0  0
    0.7500    1.2990    0.0000 C   0  0  0  0  0  0  0  0  0  0  0  0
   -0.7500    1.2990    0.0000 C   0  0  0  0  0  0  0  0  0  0  0  0
   -1.5000    0.0000    0.0000 C   0  0  0  0  0  0  0  0  0  0  0  0
   -0.7500   -1.2990    0.0000 C   0  0  0  0  0  0  0  0  0  0  0  0
   -1.5000   -2.5981    0.0000 C   0  0  0  0  0  0  0  0  0  0  0  0
   -3.8817   -6.4097    0.0000 N   0  0  0  0  0  0  0  0  0  0  0  0
   -5.3083   -5.9462    0.0000 C   0  0  0  0  0  0  0  0  0  0  0  0
   -6.6073   -6.6962    0.0000 N   0  0  0  0  0  0  0  0  0  0  0  0
  1  2  1  0
  2  3  2  0
  3  4  1  0
  4  5  1  0
  5  6  1  0
  6  7  2  0
  7  8  1  0
  8  9  2  0
  9 10  1  0
 10 11  1  0
 10 12  2  0
  4 13  2  0
 13 14  1  0
 14 15  2  0
 15 16  1  0
 16 17  1  0
 17 18  2  0
 18 19  1  0
 19 20  2  0
 20 21  1  0
 21 22  2  0
 22 23  1  0
 23 24  2  0
 24 25  1  0
 25 26  2  0
 15 27  1  0
 27 28  1  0
 28 29  2  0
 29  2  1  0
 12  6  1  0
 28 13  1  0
 26 17  1  0
 25 20  1  0
M  END
>  <Molecule ChEMBL ID>  (80) 
CHEMBL502015

>  <Smiles>  (80) 
Nc1nc(Nc2cccc(Br)c2)c2cc(Cc3ccc4ccccc4c3)[nH]c2n1

>  <pChEMBL Value>  (80) 
4.82

>  <similarity>  (80) 
0.13414634146341464

$$$$

     RDKit          2D

 23 25  0  0  0  0  0  0  0  0999 V2000
    3.0000   -5.1962    0.0000 C   0  0  0  0  0  0  0  0  0  0  0  0
    1.5000   -5.1962    0.0000 O   0  0  0  0  0  0  0  0  0  0  0  0
    0.7500   -3.8971    0.0000 C   0  0  0  0  0  0  0  0  0  0  0  0
    1.5000   -2.5981    0.0000 C   0  0  0  0  0  0  0  0  0  0  0  0
    0.7500   -1.2990    0.0000 C   0  0  0  0  0  0  0  0  0  0  0  0
    1.5000    0.0000    0.0000 N   0  0  0  0  0  0  0  0  0  0  0  0
    0.7500    1.2990    0.0000 C   0  0  0  0  0  0  0  0  0  0  0  0
   -0.7500    1.2990    0.0000 N   0  0  0  0  0  0  0  0  0  0  0  0
   -1.5000    0.0000    0.0000 C   0  0  0  0  0  0  0  0  0  0  0  0
   -3.0000    0.0000    0.0000 N   0  0  0  0  0  0  0  0  0  0  0  0
   -3.7500    1.2990    0.0000 C   0  0  0  0  0  0  0  0  0  0  0  0
   -3.0000    2.5981    0.0000 C   0  0  0  0  0  0  0  0  0  0  0  0
   -3.7500    3.8971    0.0000 C   0  0  0  0  0  0  0  0  0  0  0  0
   -5.2500    3.8971    0.0000 C   0  0  0  0  0  0  0  0  0  0  0  0
   -6.0000    5.1962    0.0000 Cl  0  0  0  0  0  0  0  0  0  0  0  0
   -6.0000    2.5981    0.0000 C   0  0  0  0  0  0  0  0  0  0  0  0
   -5.2500    1.2990    0.0000 C   0  0  0  0  0  0  0  0  0  0  0  0
   -6.0000    0.0000    0.0000 F   0  0  0  0  0  0  0  0  0  0  0  0
   -0.7500   -1.2990    0.0000 C   0  0  0  0  0  0  0  0  0  0  0  0
   -1.5000   -2.5981    0.0000 C   0  0  0  0  0  0  0  0  0  0  0  0
   -0.7500   -3.8971    0.0000 C   0  0  0  0  0  0  0  0  0  0  0  0
   -1.5000   -5.1962    0.0000 O   0  0  0  0  0  0  0  0  0  0  0  0
   -3.0000   -5.1962    0.0000 C   0  0  0  0  0  0  0  0  0  0  0  0
  1  2  1  0
  2  3  1  0
  3  4  2  0
  4  5  1  0
  5  6  2  0
  6  7  1  0
  7  8  2  0
  8  9  1  0
  9 10  1  0
 10 11  1  0
 11 12  2  0
 12 13  1  0
 13 14  2  0
 14 15  1  0
 14 16  1  0
 16 17  2  0
 17 18  1  0
  9 19  2  0
 19 20  1  0
 20 21  2  0
 21 22  1  0
 22 23  1  0
 21  3  1  0
 19  5  1  0
 17 11  1  0
M  END
>  <Molecule ChEMBL ID>  (81) 
CHEMBL150315

>  <Smiles>  (81) 
COc1cc2ncnc(Nc3ccc(Cl)cc3F)c2cc1OC

>  <pChEMBL Value>  (81) 
4.85

>  <similarity>  (81) 
0.1038961038961039

$$$$

     RDKit          2D

 23 25  0  0  0  0  0  0  0  0999 V2000
    3.0000   -5.1962    0.0000 C   0  0  0  0  0  0  0  0  0  0  0  0
    1.5000   -5.1962    0.0000 O   0  0  0  0  0  0  0  0  0  0  0  0
    0.7500   -3.8971    0.0000 C   0  0  0  0  0  0  0  0  0  0  0  0
    1.5000   -2.5981    0.0000 C   0  0  0  0  0  0  0  0  0  0  0  0
    0.7500   -1.2990    0.0000 C   0  0  0  0  0  0  0  0  0  0  0  0
    1.5000    0.0000    0.0000 N   0  0  0  0  0  0  0  0  0  0  0  0
    0.7500    1.2990    0.0000 C   0  0  0  0  0  0  0  0  0  0  0  0
   -0.7500    1.2990    0.0000 N   0  0  0  0  0  0  0  0  0  0  0  0
   -1.5000    0.0000    0.0000 C   0  0  0  0  0  0  0  0  0  0  0  0
   -3.0000    0.0000    0.0000 N   0  0  0  0  0  0  0  0  0  0  0  0
   -3.7500    1.2990    0.0000 C   0  0  0  0  0  0  0  0  0  0  0  0
   -3.0000    2.5981    0.0000 C   0  0  0  0  0  0  0  0  0  0  0  0
   -3.7500    3.8971    0.0000 C   0  0  0  0  0  0  0  0  0  0  0  0
   -5.2500    3.8971    0.0000 C   0  0  0  0  0  0  0  0  0  0  0  0
   -6.0000    5.1962    0.0000 Cl  0  0  0  0  0  0  0  0  0  0  0  0
   -6.0000    2.5981    0.0000 C   0  0  0  0  0  0  0  0  0  0  0  0
   -5.2500    1.2990    0.0000 C   0  0  0  0  0  0  0  0  0  0  0  0
   -6.0000    0.0000    0.0000 F   0  0  0  0  0  0  0  0  0  0  0  0
   -0.7500   -1.2990    0.0000 C   0  0  0  0  0  0  0  0  0  0  0  0
   -1.5000   -2.5981    0.0000 C   0  0  0  0  0  0  0  0  0  0  0  0
   -0.7500   -3.8971    0.0000 C   0  0  0  0  0  0  0  0  0  0  0  0
   -1.5000   -5.1962    0.0000 O   0  0  0  0  0  0  0  0  0  0  0  0
   -3.0000   -5.1962    0.0000 C   0  0  0  0  0  0  0  0  0  0  0  0
  1  2  1  0
  2  3  1  0
  3  4  2  0
  4  5  1  0
  5  6  2  0
  6  7  1  0
  7  8  2  0
  8  9  1  0
  9 10  1  0
 10 11  1  0
 11 12  2  0
 12 13  1  0
 13 14  2  0
 14 15  1  0
 14 16  1  0
 16 17  2  0
 17 18  1  0
  9 19  2  0
 19 20  1  0
 20 21  2  0
 21 22  1  0
 22 23  1  0
 21  3  1  0
 19  5  1  0
 17 11  1  0
M  END
>  <Molecule ChEMBL ID>  (82) 
CHEMBL150315

>  <Smiles>  (82) 
COc1cc2ncnc(Nc3ccc(Cl)cc3F)c2cc1OC

>  <pChEMBL Value>  (82) 
4.85

>  <similarity>  (82) 
0.1038961038961039

$$$$

     RDKit          2D

 27 30  0  0  0  0  0  0  0  0999 V2000
   -2.9499    4.2246    0.0000 N   0  0  0  0  0  0  0  0  0  0  0  0
   -1.8351    3.2209    0.0000 C   0  0  0  0  0  0  0  0  0  0  0  0
   -0.4086    3.6844    0.0000 N   0  0  0  0  0  0  0  0  0  0  0  0
    0.7062    2.6807    0.0000 C   0  0  0  0  0  0  0  0  0  0  0  0
    2.1328    3.1443    0.0000 N   0  0  0  0  0  0  0  0  0  0  0  0
    2.4446    4.6115    0.0000 C   0  0  0  0  0  0  0  0  0  0  0  0
    3.8712    5.0750    0.0000 C   0  0  0  0  0  0  0  0  0  0  0  0
    4.1831    6.5422    0.0000 C   0  0  0  0  0  0  0  0  0  0  0  0
    3.0684    7.5459    0.0000 C   0  0  0  0  0  0  0  0  0  0  0  0
    3.3802    9.0132    0.0000 F   0  0  0  0  0  0  0  0  0  0  0  0
    1.6418    7.0824    0.0000 C   0  0  0  0  0  0  0  0  0  0  0  0
    0.5271    8.0861    0.0000 Br  0  0  0  0  0  0  0  0  0  0  0  0
    1.3299    5.6152    0.0000 C   0  0  0  0  0  0  0  0  0  0  0  0
    0.3943    1.2135    0.0000 C   0  0  0  0  0  0  0  0  0  0  0  0
    1.2760    0.0000    0.0000 C   0  0  0  0  0  0  0  0  0  0  0  0
    0.3943   -1.2135    0.0000 C   0  0  0  0  0  0  0  0  0  0  0  0
    0.8578   -2.6401    0.0000 C   0  0  0  0  0  0  0  0  0  0  0  0
   -0.1459   -3.7548    0.0000 C   0  0  0  0  0  0  0  0  0  0  0  0
    0.3177   -5.1814    0.0000 C   0  0  0  0  0  0  0  0  0  0  0  0
   -0.6860   -6.2961    0.0000 C   0  0  0  0  0  0  0  0  0  0  0  0
   -0.2225   -7.7227    0.0000 C   0  0  0  0  0  0  0  0  0  0  0  0
    1.2447   -8.0346    0.0000 C   0  0  0  0  0  0  0  0  0  0  0  0
    2.2484   -6.9199    0.0000 C   0  0  0  0  0  0  0  0  0  0  0  0
    1.7849   -5.4933    0.0000 N   0  0  0  0  0  0  0  0  0  0  0  0
   -1.0323   -0.7500    0.0000 N   0  0  0  0  0  0  0  0  0  0  0  0
   -1.0323    0.7500    0.0000 C   0  0  0  0  0  0  0  0  0  0  0  0
   -2.1470    1.7537    0.0000 N   0  0  0  0  0  0  0  0  0  0  0  0
  1  2  1  0
  2  3  2  0
  3  4  1  0
  4  5  1  0
  5  6  1  0
  6  7  2  0
  7  8  1  0
  8  9  2  0
  9 10  1  0
  9 11  1  0
 11 12  1  0
 11 13  2  0
  4 14  2  0
 14 15  1  0
 15 16  2  0
 16 17  1  0
 17 18  1  0
 18 19  1  0
 19 20  2  0
 20 21  1  0
 21 22  2  0
 22 23  1  0
 23 24  2  0
 16 25  1  0
 25 26  1  0
 26 27  2  0
 27  2  1  0
 13  6  1  0
 26 14  1  0
 24 19  1  0
M  END
>  <Molecule ChEMBL ID>  (83) 
CHEMBL2335377

>  <Smiles>  (83) 
Nc1nc(Nc2ccc(F)c(Br)c2)c2cc(CCc3ccccn3)[nH]c2n1

>  <pChEMBL Value>  (83) 
4.03

>  <similarity>  (83) 
0.1566265060240964

$$$$

     RDKit          2D

 30 34  0  0  0  0  0  0  0  0999 V2000
   -0.0000   -5.1073    0.0000 O   0  0  0  0  0  0  0  0  0  0  0  0
   -0.0000   -3.6073    0.0000 C   0  0  0  0  0  0  0  0  0  0  0  0
    1.2135   -2.7256    0.0000 N   0  0  0  0  0  0  0  0  0  0  0  0
    0.7500   -1.2990    0.0000 C   0  0  0  0  0  0  0  0  0  0  0  0
    1.5000    0.0000    0.0000 C   0  0  0  0  0  0  0  0  0  0  0  0
    0.7500    1.2990    0.0000 C   0  0  0  0  0  0  0  0  0  0  0  0
   -0.7500    1.2990    0.0000 C   0  0  0  0  0  0  0  0  0  0  0  0
   -1.5000    0.0000    0.0000 C   0  0  0  0  0  0  0  0  0  0  0  0
   -0.7500   -1.2990    0.0000 C   0  0  0  0  0  0  0  0  0  0  0  0
   -1.2135   -2.7256    0.0000 C   0  0  0  0  0  0  0  0  0  0  0  0
   -2.6401   -3.1891    0.0000 C   0  0  0  0  0  0  0  0  0  0  0  0
   -2.9520   -4.6564    0.0000 C   0  0  0  0  0  0  0  0  0  0  0  0
   -4.3786   -5.1199    0.0000 C   0  0  0  0  0  0  0  0  0  0  0  0
   -4.6904   -6.5871    0.0000 C   0  0  0  0  0  0  0  0  0  0  0  0
   -3.5757   -7.5908    0.0000 C   0  0  0  0  0  0  0  0  0  0  0  0
   -3.8876   -9.0580    0.0000 C   0  0  0  0  0  0  0  0  0  0  0  0
   -4.1994  -10.5253    0.0000 F   0  0  0  0  0  0  0  0  0  0  0  0
   -5.3548   -8.7462    0.0000 F   0  0  0  0  0  0  0  0  0  0  0  0
   -2.4204   -9.3699    0.0000 F   0  0  0  0  0  0  0  0  0  0  0  0
   -2.1491   -7.1273    0.0000 C   0  0  0  0  0  0  0  0  0  0  0  0
   -1.8373   -5.6601    0.0000 C   0  0  0  0  0  0  0  0  0  0  0  0
   -3.7548   -2.1855    0.0000 C   0  0  0  0  0  0  0  0  0  0  0  0
   -3.5980   -0.6937    0.0000 N   0  0  0  0  0  0  0  0  0  0  0  0
   -4.9684   -0.0836    0.0000 C   0  0  0  0  0  0  0  0  0  0  0  0
   -5.4319    1.3430    0.0000 C   0  0  0  0  0  0  0  0  0  0  0  0
   -6.8991    1.6549    0.0000 C   0  0  0  0  0  0  0  0  0  0  0  0
   -7.9028    0.5402    0.0000 C   0  0  0  0  0  0  0  0  0  0  0  0
   -7.4393   -0.8864    0.0000 C   0  0  0  0  0  0  0  0  0  0  0  0
   -5.9720   -1.1983    0.0000 C   0  0  0  0  0  0  0  0  0  0  0  0
   -5.2220   -2.4973    0.0000 N   0  0  0  0  0  0  0  0  0  0  0  0
  1  2  2  0
  2  3  1  0
  3  4  1  0
  4  5  2  0
  5  6  1  0
  6  7  2  0
  7  8  1  0
  8  9  2  0
  9 10  1  0
 10 11  2  3
 11 12  1  0
 12 13  2  0
 13 14  1  0
 14 15  2  0
 15 16  1  0
 16 17  1  0
 16 18  1  0
 16 19  1  0
 15 20  1  0
 20 21  2  0
 11 22  1  0
 22 23  2  0
 23 24  1  0
 24 25  2  0
 25 26  1  0
 26 27  2  0
 27 28  1  0
 28 29  2  0
 29 30  1  0
 10  2  1  0
 21 12  1  0
 30 22  1  0
  9  4  1  0
 29 24  1  0
M  END
>  <Molecule ChEMBL ID>  (84) 
CHEMBL2086728

>  <Smiles>  (84) 
O=C1Nc2ccccc2C1=C(c1ccc(C(F)(F)F)cc1)c1nc2ccccc2[nH]1

>  <pChEMBL Value>  (84) 
4.62

>  <similarity>  (84) 
0.21333333333333335

$$$$

     RDKit          2D

 26 29  0  0  0  0  0  0  0  0999 V2000
   -2.9499    4.2246    0.0000 N   0  0  0  0  0  0  0  0  0  0  0  0
   -1.8351    3.2209    0.0000 C   0  0  0  0  0  0  0  0  0  0  0  0
   -0.4086    3.6844    0.0000 N   0  0  0  0  0  0  0  0  0  0  0  0
    0.7062    2.6807    0.0000 C   0  0  0  0  0  0  0  0  0  0  0  0
    2.1328    3.1443    0.0000 N   0  0  0  0  0  0  0  0  0  0  0  0
    2.4446    4.6115    0.0000 C   0  0  0  0  0  0  0  0  0  0  0  0
    3.8712    5.0750    0.0000 C   0  0  0  0  0  0  0  0  0  0  0  0
    4.1831    6.5422    0.0000 C   0  0  0  0  0  0  0  0  0  0  0  0
    3.0684    7.5459    0.0000 C   0  0  0  0  0  0  0  0  0  0  0  0
    1.6418    7.0824    0.0000 C   0  0  0  0  0  0  0  0  0  0  0  0
    0.5271    8.0861    0.0000 Br  0  0  0  0  0  0  0  0  0  0  0  0
    1.3299    5.6152    0.0000 C   0  0  0  0  0  0  0  0  0  0  0  0
    0.3943    1.2135    0.0000 C   0  0  0  0  0  0  0  0  0  0  0  0
    1.2760    0.0000    0.0000 C   0  0  0  0  0  0  0  0  0  0  0  0
    0.3943   -1.2135    0.0000 C   0  0  0  0  0  0  0  0  0  0  0  0
    0.8578   -2.6401    0.0000 C   0  0  0  0  0  0  0  0  0  0  0  0
   -0.1459   -3.7548    0.0000 C   0  0  0  0  0  0  0  0  0  0  0  0
   -1.6131   -3.4430    0.0000 C   0  0  0  0  0  0  0  0  0  0  0  0
   -2.6168   -4.5577    0.0000 C   0  0  0  0  0  0  0  0  0  0  0  0
   -2.1533   -5.9843    0.0000 C   0  0  0  0  0  0  0  0  0  0  0  0
   -0.6860   -6.2961    0.0000 C   0  0  0  0  0  0  0  0  0  0  0  0
    0.3177   -5.1814    0.0000 C   0  0  0  0  0  0  0  0  0  0  0  0
    1.7849   -5.4933    0.0000 Cl  0  0  0  0  0  0  0  0  0  0  0  0
   -1.0323   -0.7500    0.0000 N   0  0  0  0  0  0  0  0  0  0  0  0
   -1.0323    0.7500    0.0000 C   0  0  0  0  0  0  0  0  0  0  0  0
   -2.1470    1.7537    0.0000 N   0  0  0  0  0  0  0  0  0  0  0  0
  1  2  1  0
  2  3  2  0
  3  4  1  0
  4  5  1  0
  5  6  1  0
  6  7  2  0
  7  8  1  0
  8  9  2  0
  9 10  1  0
 10 11  1  0
 10 12  2  0
  4 13  2  0
 13 14  1  0
 14 15  2  0
 15 16  1  0
 16 17  1  0
 17 18  2  0
 18 19  1  0
 19 20  2  0
 20 21  1  0
 21 22  2  0
 22 23  1  0
 15 24  1  0
 24 25  1  0
 25 26  2  0
 26  2  1  0
 12  6  1  0
 25 13  1  0
 22 17  1  0
M  END
>  <Molecule ChEMBL ID>  (85) 
CHEMBL499345

>  <Smiles>  (85) 
Nc1nc(Nc2cccc(Br)c2)c2cc(Cc3ccccc3Cl)[nH]c2n1

>  <pChEMBL Value>  (85) 
4.57

>  <similarity>  (85) 
0.13414634146341464

$$$$

     RDKit          2D

 39 44  0  0  0  0  0  0  0  0999 V2000
    3.7500   -6.4952    0.0000 O   0  0  0  0  0  0  0  0  0  0  0  0
    3.0000   -5.1962    0.0000 C   0  0  0  0  0  0  0  0  0  0  0  0
    1.5000   -5.1962    0.0000 C   0  0  0  0  0  0  0  0  0  0  0  0
    0.7500   -3.8971    0.0000 C   0  0  0  0  0  0  0  0  0  0  0  0
    1.5000   -2.5981    0.0000 C   0  0  0  0  0  0  0  0  0  0  0  0
    0.7500   -1.2990    0.0000 C   0  0  0  0  0  0  0  0  0  0  0  0
    1.5000   -0.0000    0.0000 C   0  0  0  0  0  0  0  0  0  0  0  0
    0.7500    1.2990    0.0000 C   0  0  0  0  0  0  0  0  0  0  0  0
    1.5000    2.5981    0.0000 C   0  0  0  0  0  0  0  0  0  0  0  0
    0.7500    3.8971    0.0000 C   0  0  0  0  0  0  0  0  0  0  0  0
   -0.2268    4.0171    0.0000 O   0  0  0  0  0  0  0  0  0  0  0  0
    1.5000    5.1962    0.0000 C   0  0  0  0  0  0  0  0  0  0  0  0
    3.0000    5.1962    0.0000 C   0  0  0  0  0  0  0  0  0  0  0  0
    3.7500    6.4952    0.0000 O   0  0  0  0  0  0  0  0  0  0  0  0
    3.7500    3.8971    0.0000 C   0  0  0  0  0  0  0  0  0  0  0  0
    3.0000    2.5981    0.0000 C   0  0  0  0  0  0  0  0  0  0  0  0
    3.7500    1.2990    0.0000 O   0  0  0  0  0  0  0  0  0  0  0  0
    5.2500    1.2990    0.0000 C   0  0  0  0  0  0  0  0  0  0  0  0
    6.0000   -0.0000    0.0000 C   0  0  0  0  0  0  0  0  0  0  0  0
    5.2500   -1.2990    0.0000 C   0  0  0  0  0  0  0  0  0  0  0  0
    6.0000   -2.5981    0.0000 C   0  0  0  0  0  0  0  0  0  0  0  0
    7.5000   -2.5981    0.0000 C   0  0  0  0  0  0  0  0  0  0  0  0
    8.2500   -3.8971    0.0000 O   0  0  0  0  0  0  0  0  0  0  0  0
    8.2500   -1.2990    0.0000 C   0  0  0  0  0  0  0  0  0  0  0  0
    7.5000   -0.0000    0.0000 C   0  0  0  0  0  0  0  0  0  0  0  0
    6.0000    2.5981    0.0000 C   0  0  0  0  0  0  0  0  0  0  0  0
    7.5000    2.5981    0.0000 O   0  0  0  0  0  0  0  0  0  0  0  0
    5.2500    3.8971    0.0000 C   0  0  0  0  0  0  0  0  0  0  0  0
   -0.7500    1.2990    0.0000 C   0  0  0  0  0  0  0  0  0  0  0  0
   -1.5000    2.5981    0.0000 C   0  0  0  0  0  0  0  0  0  0  0  0
   -1.1155    3.5040    0.0000 O   0  0  0  0  0  0  0  0  0  0  0  0
   -3.0000    2.5981    0.0000 C   0  0  0  0  0  0  0  0  0  0  0  0
   -3.7500    1.2990    0.0000 C   0  0  0  0  0  0  0  0  0  0  0  0
   -5.2500    1.2990    0.0000 O   0  0  0  0  0  0  0  0  0  0  0  0
   -3.0000   -0.0000    0.0000 C   0  0  0  0  0  0  0  0  0  0  0  0
   -1.5000   -0.0000    0.0000 C   0  0  0  0  0  0  0  0  0  0  0  0
   -0.7500   -1.2990    0.0000 O   0  0  0  0  0  0  0  0  0  0  0  0
    3.0000   -2.5981    0.0000 C   0  0  0  0  0  0  0  0  0  0  0  0
    3.7500   -3.8971    0.0000 C   0  0  0  0  0  0  0  0  0  0  0  0
  1  2  1  0
  2  3  2  0
  3  4  1  0
  4  5  2  0
  6  5  1  1
  6  7  1  0
  7  8  1  0
  8  9  1  6
  9 10  2  0
 10 11  1  0
 10 12  1  0
 12 13  2  0
 13 14  1  0
 13 15  1  0
 15 16  2  0
 16 17  1  0
 17 18  1  0
 18 19  1  1
 19 20  2  0
 20 21  1  0
 21 22  2  0
 22 23  1  0
 22 24  1  0
 24 25  2  0
 18 26  1  0
 26 27  1  6
 26 28  1  0
  8 29  1  0
 29 30  2  0
 30 31  1  0
 30 32  1  0
 32 33  2  0
 33 34  1  0
 33 35  1  0
 35 36  2  0
 36 37  1  0
  5 38  1  0
 38 39  2  0
 39  2  1  0
 37  6  1  0
 16  9  1  0
 25 19  1  0
 36 29  1  0
 28 15  1  0
M  END
>  <Molecule ChEMBL ID>  (86) 
CHEMBL2335722

>  <Smiles>  (86) 
Oc1ccc([C@@H]2C[C@@H](c3c(O)cc(O)c4c3O[C@H](c3ccc(O)cc3)[C@@H](O)C4)c3c(O)cc(O)cc3O2)cc1

>  <pChEMBL Value>  (86) 
4.82

>  <similarity>  (86) 
0.06976744186046512

$$$$

     RDKit          2D

 29 33  0  0  0  0  0  0  0  0999 V2000
   -9.2054   -6.6962    0.0000 N   0  0  0  0  0  0  0  0  0  0  0  0
   -7.9063   -5.9462    0.0000 C   0  0  0  0  0  0  0  0  0  0  0  0
   -7.9063   -4.4462    0.0000 N   0  0  0  0  0  0  0  0  0  0  0  0
   -6.6073   -3.6962    0.0000 C   0  0  0  0  0  0  0  0  0  0  0  0
   -6.6073   -2.1962    0.0000 N   0  0  0  0  0  0  0  0  0  0  0  0
   -7.9063   -1.4462    0.0000 C   0  0  0  0  0  0  0  0  0  0  0  0
   -7.9063    0.0538    0.0000 C   0  0  0  0  0  0  0  0  0  0  0  0
   -9.2054    0.8038    0.0000 C   0  0  0  0  0  0  0  0  0  0  0  0
  -10.5044    0.0538    0.0000 C   0  0  0  0  0  0  0  0  0  0  0  0
  -10.5044   -1.4462    0.0000 C   0  0  0  0  0  0  0  0  0  0  0  0
  -11.8035   -2.1962    0.0000 Br  0  0  0  0  0  0  0  0  0  0  0  0
   -9.2054   -2.1962    0.0000 C   0  0  0  0  0  0  0  0  0  0  0  0
   -5.3083   -4.4462    0.0000 C   0  0  0  0  0  0  0  0  0  0  0  0
   -3.8817   -3.9826    0.0000 C   0  0  0  0  0  0  0  0  0  0  0  0
   -3.0000   -5.1962    0.0000 C   0  0  0  0  0  0  0  0  0  0  0  0
   -1.5000   -5.1962    0.0000 C   0  0  0  0  0  0  0  0  0  0  0  0
   -0.7500   -3.8971    0.0000 C   0  0  0  0  0  0  0  0  0  0  0  0
    0.7500   -3.8971    0.0000 C   0  0  0  0  0  0  0  0  0  0  0  0
    1.5000   -2.5981    0.0000 C   0  0  0  0  0  0  0  0  0  0  0  0
    0.7500   -1.2990    0.0000 C   0  0  0  0  0  0  0  0  0  0  0  0
    1.5000    0.0000    0.0000 C   0  0  0  0  0  0  0  0  0  0  0  0
    0.7500    1.2990    0.0000 C   0  0  0  0  0  0  0  0  0  0  0  0
   -0.7500    1.2990    0.0000 C   0  0  0  0  0  0  0  0  0  0  0  0
   -1.5000    0.0000    0.0000 C   0  0  0  0  0  0  0  0  0  0  0  0
   -0.7500   -1.2990    0.0000 C   0  0  0  0  0  0  0  0  0  0  0  0
   -1.5000   -2.5981    0.0000 C   0  0  0  0  0  0  0  0  0  0  0  0
   -3.8817   -6.4097    0.0000 N   0  0  0  0  0  0  0  0  0  0  0  0
   -5.3083   -5.9462    0.0000 C   0  0  0  0  0  0  0  0  0  0  0  0
   -6.6073   -6.6962    0.0000 N   0  0  0  0  0  0  0  0  0  0  0  0
  1  2  1  0
  2  3  2  0
  3  4  1  0
  4  5  1  0
  5  6  1  0
  6  7  2  0
  7  8  1  0
  8  9  2  0
  9 10  1  0
 10 11  1  0
 10 12  2  0
  4 13  2  0
 13 14  1  0
 14 15  2  0
 15 16  1  0
 16 17  1  0
 17 18  2  0
 18 19  1  0
 19 20  2  0
 20 21  1  0
 21 22  2  0
 22 23  1  0
 23 24  2  0
 24 25  1  0
 25 26  2  0
 15 27  1  0
 27 28  1  0
 28 29  2  0
 29  2  1  0
 12  6  1  0
 28 13  1  0
 26 17  1  0
 25 20  1  0
M  END
>  <Molecule ChEMBL ID>  (87) 
CHEMBL502015

>  <Smiles>  (87) 
Nc1nc(Nc2cccc(Br)c2)c2cc(Cc3ccc4ccccc4c3)[nH]c2n1

>  <pChEMBL Value>  (87) 
4.82

>  <similarity>  (87) 
0.13414634146341464

$$$$

     RDKit          2D

 23 25  0  0  0  0  0  0  0  0999 V2000
    3.0000   -5.1962    0.0000 C   0  0  0  0  0  0  0  0  0  0  0  0
    1.5000   -5.1962    0.0000 O   0  0  0  0  0  0  0  0  0  0  0  0
    0.7500   -3.8971    0.0000 C   0  0  0  0  0  0  0  0  0  0  0  0
    1.5000   -2.5981    0.0000 C   0  0  0  0  0  0  0  0  0  0  0  0
    0.7500   -1.2990    0.0000 C   0  0  0  0  0  0  0  0  0  0  0  0
    1.5000    0.0000    0.0000 N   0  0  0  0  0  0  0  0  0  0  0  0
    0.7500    1.2990    0.0000 C   0  0  0  0  0  0  0  0  0  0  0  0
   -0.7500    1.2990    0.0000 N   0  0  0  0  0  0  0  0  0  0  0  0
   -1.5000    0.0000    0.0000 C   0  0  0  0  0  0  0  0  0  0  0  0
   -3.0000    0.0000    0.0000 N   0  0  0  0  0  0  0  0  0  0  0  0
   -3.7500    1.2990    0.0000 C   0  0  0  0  0  0  0  0  0  0  0  0
   -3.0000    2.5981    0.0000 C   0  0  0  0  0  0  0  0  0  0  0  0
   -3.7500    3.8971    0.0000 C   0  0  0  0  0  0  0  0  0  0  0  0
   -5.2500    3.8971    0.0000 C   0  0  0  0  0  0  0  0  0  0  0  0
   -6.0000    5.1962    0.0000 Cl  0  0  0  0  0  0  0  0  0  0  0  0
   -6.0000    2.5981    0.0000 C   0  0  0  0  0  0  0  0  0  0  0  0
   -5.2500    1.2990    0.0000 C   0  0  0  0  0  0  0  0  0  0  0  0
   -6.0000    0.0000    0.0000 F   0  0  0  0  0  0  0  0  0  0  0  0
   -0.7500   -1.2990    0.0000 C   0  0  0  0  0  0  0  0  0  0  0  0
   -1.5000   -2.5981    0.0000 C   0  0  0  0  0  0  0  0  0  0  0  0
   -0.7500   -3.8971    0.0000 C   0  0  0  0  0  0  0  0  0  0  0  0
   -1.5000   -5.1962    0.0000 O   0  0  0  0  0  0  0  0  0  0  0  0
   -3.0000   -5.1962    0.0000 C   0  0  0  0  0  0  0  0  0  0  0  0
  1  2  1  0
  2  3  1  0
  3  4  2  0
  4  5  1  0
  5  6  2  0
  6  7  1  0
  7  8  2  0
  8  9  1  0
  9 10  1  0
 10 11  1  0
 11 12  2  0
 12 13  1  0
 13 14  2  0
 14 15  1  0
 14 16  1  0
 16 17  2  0
 17 18  1  0
  9 19  2  0
 19 20  1  0
 20 21  2  0
 21 22  1  0
 22 23  1  0
 21  3  1  0
 19  5  1  0
 17 11  1  0
M  END
>  <Molecule ChEMBL ID>  (88) 
CHEMBL150315

>  <Smiles>  (88) 
COc1cc2ncnc(Nc3ccc(Cl)cc3F)c2cc1OC

>  <pChEMBL Value>  (88) 
4.75

>  <similarity>  (88) 
0.1038961038961039

$$$$

     RDKit          2D

 22 24  0  0  0  0  0  0  0  0999 V2000
    3.0000   -5.1962    0.0000 C   0  0  0  0  0  0  0  0  0  0  0  0
    1.5000   -5.1962    0.0000 O   0  0  0  0  0  0  0  0  0  0  0  0
    0.7500   -3.8971    0.0000 C   0  0  0  0  0  0  0  0  0  0  0  0
    1.5000   -2.5981    0.0000 C   0  0  0  0  0  0  0  0  0  0  0  0
    0.7500   -1.2990    0.0000 C   0  0  0  0  0  0  0  0  0  0  0  0
    1.5000    0.0000    0.0000 N   0  0  0  0  0  0  0  0  0  0  0  0
    0.7500    1.2990    0.0000 C   0  0  0  0  0  0  0  0  0  0  0  0
   -0.7500    1.2990    0.0000 N   0  0  0  0  0  0  0  0  0  0  0  0
   -1.5000    0.0000    0.0000 C   0  0  0  0  0  0  0  0  0  0  0  0
   -3.0000    0.0000    0.0000 N   0  0  0  0  0  0  0  0  0  0  0  0
   -3.7500    1.2990    0.0000 C   0  0  0  0  0  0  0  0  0  0  0  0
   -3.0000    2.5981    0.0000 C   0  0  0  0  0  0  0  0  0  0  0  0
   -3.7500    3.8971    0.0000 C   0  0  0  0  0  0  0  0  0  0  0  0
   -5.2500    3.8971    0.0000 C   0  0  0  0  0  0  0  0  0  0  0  0
   -6.0000    5.1962    0.0000 Cl  0  0  0  0  0  0  0  0  0  0  0  0
   -6.0000    2.5981    0.0000 C   0  0  0  0  0  0  0  0  0  0  0  0
   -5.2500    1.2990    0.0000 C   0  0  0  0  0  0  0  0  0  0  0  0
   -0.7500   -1.2990    0.0000 C   0  0  0  0  0  0  0  0  0  0  0  0
   -1.5000   -2.5981    0.0000 C   0  0  0  0  0  0  0  0  0  0  0  0
   -0.7500   -3.8971    0.0000 C   0  0  0  0  0  0  0  0  0  0  0  0
   -1.5000   -5.1962    0.0000 O   0  0  0  0  0  0  0  0  0  0  0  0
   -3.0000   -5.1962    0.0000 C   0  0  0  0  0  0  0  0  0  0  0  0
  1  2  1  0
  2  3  1  0
  3  4  2  0
  4  5  1  0
  5  6  2  0
  6  7  1  0
  7  8  2  0
  8  9  1  0
  9 10  1  0
 10 11  1  0
 11 12  2  0
 12 13  1  0
 13 14  2  0
 14 15  1  0
 14 16  1  0
 16 17  2  0
  9 18  2  0
 18 19  1  0
 19 20  2  0
 20 21  1  0
 21 22  1  0
 20  3  1  0
 18  5  1  0
 17 11  1  0
M  END
>  <Molecule ChEMBL ID>  (89) 
CHEMBL147138

>  <Smiles>  (89) 
COc1cc2ncnc(Nc3ccc(Cl)cc3)c2cc1OC

>  <pChEMBL Value>  (89) 
4.96

>  <similarity>  (89) 
0.1267605633802817

$$$$

     RDKit          2D

121124  0  0  0  0  0  0  0  0999 V2000
   -3.8839   24.3391    0.0000 C   0  0  0  0  0  0  0  0  0  0  0  0
   -3.9736   22.8418    0.0000 C   0  0  0  0  0  0  0  0  0  0  0  0
   -2.7217   22.0155    0.0000 C   0  0  0  0  0  0  0  0  0  0  0  0
   -1.3802   22.6864    0.0000 C   0  0  0  0  0  0  0  0  0  0  0  0
   -2.8115   20.5181    0.0000 C   0  0  0  0  0  0  0  0  0  0  0  0
   -1.3250   20.3168    0.0000 N   0  0  0  0  0  0  0  0  0  0  0  0
    0.1148   19.8962    0.0000 C   0  0  0  0  0  0  0  0  0  0  0  0
    0.6418   21.3005    0.0000 O   0  0  0  0  0  0  0  0  0  0  0  0
    1.4758   19.2656    0.0000 C   0  0  0  0  0  0  0  0  0  0  0  0
    2.2063   20.5757    0.0000 C   0  0  0  0  0  0  0  0  0  0  0  0
    3.7061   20.5982    0.0000 C   0  0  0  0  0  0  0  0  0  0  0  0
    4.4755   19.3105    0.0000 C   0  0  0  0  0  0  0  0  0  0  0  0
    5.9753   19.3329    0.0000 C   0  0  0  0  0  0  0  0  0  0  0  0
    6.7058   20.6430    0.0000 C   0  0  0  0  0  0  0  0  0  0  0  0
    8.2056   20.6655    0.0000 O   0  0  0  0  0  0  0  0  0  0  0  0
    5.9365   21.9307    0.0000 C   0  0  0  0  0  0  0  0  0  0  0  0
    4.4366   21.9083    0.0000 C   0  0  0  0  0  0  0  0  0  0  0  0
    2.7277   18.4393    0.0000 N   0  0  0  0  0  0  0  0  0  0  0  0
    3.8424   17.4356    0.0000 C   0  0  0  0  0  0  0  0  0  0  0  0
    4.9266   18.4722    0.0000 O   0  0  0  0  0  0  0  0  0  0  0  0
    4.7951   16.2769    0.0000 C   0  0  0  0  0  0  0  0  0  0  0  0
    6.0217   17.1404    0.0000 C   0  0  0  0  0  0  0  0  0  0  0  0
    7.3827   16.5098    0.0000 C   0  0  0  0  0  0  0  0  0  0  0  0
    8.6093   17.3733    0.0000 C   0  0  0  0  0  0  0  0  0  0  0  0
    8.4748   18.8672    0.0000 O   0  0  0  0  0  0  0  0  0  0  0  0
    9.9703   16.7427    0.0000 O   0  0  0  0  0  0  0  0  0  0  0  0
    5.5644   14.9893    0.0000 N   0  0  0  0  0  0  0  0  0  0  0  0
    6.1333   13.6013    0.0000 C   0  0  0  0  0  0  0  0  0  0  0  0
    7.5598   14.0648    0.0000 O   0  0  0  0  0  0  0  0  0  0  0  0
    6.4889   12.1441    0.0000 C   0  0  0  0  0  0  0  0  0  0  0  0
    7.9686   12.3898    0.0000 C   0  0  0  0  0  0  0  0  0  0  0  0
    8.9213   11.2312    0.0000 C   0  0  0  0  0  0  0  0  0  0  0  0
    8.4957   13.7942    0.0000 C   0  0  0  0  0  0  0  0  0  0  0  0
    9.9754   14.0399    0.0000 C   0  0  0  0  0  0  0  0  0  0  0  0
    6.6233   10.6501    0.0000 N   0  0  0  0  0  0  0  0  0  0  0  0
    6.5336    9.1528    0.0000 C   0  0  0  0  0  0  0  0  0  0  0  0
    8.0201    8.9515    0.0000 O   0  0  0  0  0  0  0  0  0  0  0  0
    6.2218    7.6856    0.0000 C   0  0  0  0  0  0  0  0  0  0  0  0
    7.6616    7.2649    0.0000 C   0  0  0  0  0  0  0  0  0  0  0  0
    8.0172    5.8077    0.0000 C   0  0  0  0  0  0  0  0  0  0  0  0
    9.4570    5.3871    0.0000 C   0  0  0  0  0  0  0  0  0  0  0  0
   10.5412    6.4237    0.0000 O   0  0  0  0  0  0  0  0  0  0  0  0
    9.8126    3.9298    0.0000 O   0  0  0  0  0  0  0  0  0  0  0  0
    5.6947    6.2812    0.0000 N   0  0  0  0  0  0  0  0  0  0  0  0
    4.9642    4.9711    0.0000 C   0  0  0  0  0  0  0  0  0  0  0  0
    6.2161    4.1448    0.0000 O   0  0  0  0  0  0  0  0  0  0  0  0
    4.0466    3.7845    0.0000 C   0  0  0  0  0  0  0  0  0  0  0  0
    5.1614    2.7808    0.0000 C   0  0  0  0  0  0  0  0  0  0  0  0
    4.8495    1.3136    0.0000 C   0  0  0  0  0  0  0  0  0  0  0  0
    3.4229    0.8501    0.0000 O   0  0  0  0  0  0  0  0  0  0  0  0
    5.9642    0.3099    0.0000 O   0  0  0  0  0  0  0  0  0  0  0  0
    2.9624    2.7479    0.0000 N   0  0  0  0  0  0  0  0  0  0  0  0
    1.7359    1.8845    0.0000 C   0  0  0  0  0  0  0  0  0  0  0  0
    2.5052    0.5968    0.0000 O   0  0  0  0  0  0  0  0  0  0  0  0
    0.3943    1.2135    0.0000 C   0  0  0  0  0  0  0  0  0  0  0  0
    1.2760    0.0000    0.0000 C   0  0  0  0  0  0  0  0  0  0  0  0
    0.3943   -1.2135    0.0000 C   0  0  0  0  0  0  0  0  0  0  0  0
   -1.0323   -0.7500    0.0000 C   0  0  0  0  0  0  0  0  0  0  0  0
   -1.0323    0.7500    0.0000 N   0  0  0  0  0  0  0  0  0  0  0  0
   -2.5120    0.5043    0.0000 C   0  0  0  0  0  0  0  0  0  0  0  0
   -2.3776   -0.9897    0.0000 O   0  0  0  0  0  0  0  0  0  0  0  0
   -4.0119    0.4818    0.0000 C   0  0  0  0  0  0  0  0  0  0  0  0
   -4.1016   -1.0155    0.0000 C   0  0  0  0  0  0  0  0  0  0  0  0
   -5.4431   -1.6865    0.0000 C   0  0  0  0  0  0  0  0  0  0  0  0
   -6.6950   -0.8601    0.0000 C   0  0  0  0  0  0  0  0  0  0  0  0
   -8.0366   -1.5311    0.0000 C   0  0  0  0  0  0  0  0  0  0  0  0
   -8.1263   -3.0284    0.0000 C   0  0  0  0  0  0  0  0  0  0  0  0
   -9.4678   -3.6994    0.0000 O   0  0  0  0  0  0  0  0  0  0  0  0
   -6.8744   -3.8547    0.0000 C   0  0  0  0  0  0  0  0  0  0  0  0
   -5.5328   -3.1838    0.0000 C   0  0  0  0  0  0  0  0  0  0  0  0
   -5.4983    0.6832    0.0000 N   0  0  0  0  0  0  0  0  0  0  0  0
   -6.9381    1.1038    0.0000 C   0  0  0  0  0  0  0  0  0  0  0  0
   -7.4652   -0.3005    0.0000 O   0  0  0  0  0  0  0  0  0  0  0  0
   -8.2991    1.7344    0.0000 C   0  0  0  0  0  0  0  0  0  0  0  0
   -9.0296    0.4242    0.0000 C   0  0  0  0  0  0  0  0  0  0  0  0
  -10.5294    0.4018    0.0000 C   0  0  0  0  0  0  0  0  0  0  0  0
  -11.2599   -0.9083    0.0000 C   0  0  0  0  0  0  0  0  0  0  0  0
  -10.4906   -2.1960    0.0000 O   0  0  0  0  0  0  0  0  0  0  0  0
  -12.7598   -0.9307    0.0000 O   0  0  0  0  0  0  0  0  0  0  0  0
   -9.5510    2.5607    0.0000 N   0  0  0  0  0  0  0  0  0  0  0  0
  -10.6657    3.5644    0.0000 C   0  0  0  0  0  0  0  0  0  0  0  0
  -11.7499    2.5278    0.0000 O   0  0  0  0  0  0  0  0  0  0  0  0
  -11.6184    4.7230    0.0000 C   0  0  0  0  0  0  0  0  0  0  0  0
  -12.8450    3.8596    0.0000 C   0  0  0  0  0  0  0  0  0  0  0  0
  -14.2060    4.4901    0.0000 C   0  0  0  0  0  0  0  0  0  0  0  0
  -15.4326    3.6267    0.0000 C   0  0  0  0  0  0  0  0  0  0  0  0
  -16.7936    4.2572    0.0000 N   0  0  0  0  0  0  0  0  0  0  0  0
  -15.2981    2.1328    0.0000 O   0  0  0  0  0  0  0  0  0  0  0  0
  -12.3877    6.0107    0.0000 N   0  0  0  0  0  0  0  0  0  0  0  0
  -12.9566    7.3987    0.0000 C   0  0  0  0  0  0  0  0  0  0  0  0
  -14.3832    6.9351    0.0000 O   0  0  0  0  0  0  0  0  0  0  0  0
  -13.3122    8.8559    0.0000 C   0  0  0  0  0  0  0  0  0  0  0  0
  -14.7919    8.6102    0.0000 N   0  0  0  0  0  0  0  0  0  0  0  0
  -15.7446    9.7688    0.0000 C   0  0  0  0  0  0  0  0  0  0  0  0
  -17.2243    9.5231    0.0000 C   0  0  0  0  0  0  0  0  0  0  0  0
  -15.2175   11.1731    0.0000 O   0  0  0  0  0  0  0  0  0  0  0  0
  -13.4466   10.3499    0.0000 C   0  0  0  0  0  0  0  0  0  0  0  0
  -13.3569   11.8472    0.0000 C   0  0  0  0  0  0  0  0  0  0  0  0
  -13.0451   13.3144    0.0000 C   0  0  0  0  0  0  0  0  0  0  0  0
  -12.5180   14.7187    0.0000 C   0  0  0  0  0  0  0  0  0  0  0  0
  -11.7875   16.0289    0.0000 N   0  0  0  0  0  0  0  0  0  0  0  0
  -10.8699   17.2155    0.0000 C   0  0  0  0  0  0  0  0  0  0  0  0
  -11.9847   18.2192    0.0000 O   0  0  0  0  0  0  0  0  0  0  0  0
   -9.7857   18.2521    0.0000 C   0  0  0  0  0  0  0  0  0  0  0  0
   -8.5592   19.1155    0.0000 C   0  0  0  0  0  0  0  0  0  0  0  0
   -7.2176   19.7865    0.0000 C   0  0  0  0  0  0  0  0  0  0  0  0
   -7.7864   21.1744    0.0000 C   0  0  0  0  0  0  0  0  0  0  0  0
   -9.2729   21.3758    0.0000 O   0  0  0  0  0  0  0  0  0  0  0  0
   -6.8689   22.3610    0.0000 N   0  0  0  0  0  0  0  0  0  0  0  0
   -7.4377   23.7490    0.0000 C   0  0  0  0  0  0  0  0  0  0  0  0
   -6.5201   24.9356    0.0000 C   0  0  0  0  0  0  0  0  0  0  0  0
   -7.0889   26.3235    0.0000 C   0  0  0  0  0  0  0  0  0  0  0  0
   -6.1714   27.5101    0.0000 C   0  0  0  0  0  0  0  0  0  0  0  0
   -6.7402   28.8981    0.0000 C   0  0  0  0  0  0  0  0  0  0  0  0
   -5.8226   30.0847    0.0000 N   0  0  0  0  0  0  0  0  0  0  0  0
   -8.9241   23.9503    0.0000 C   0  0  0  0  0  0  0  0  0  0  0  0
   -9.4930   25.3383    0.0000 N   0  0  0  0  0  0  0  0  0  0  0  0
   -9.8417   22.7637    0.0000 O   0  0  0  0  0  0  0  0  0  0  0  0
   -5.7910   20.2500    0.0000 N   0  0  0  0  0  0  0  0  0  0  0  0
   -4.3113   20.4957    0.0000 C   0  0  0  0  0  0  0  0  0  0  0  0
   -4.4457   21.9897    0.0000 O   0  0  0  0  0  0  0  0  0  0  0  0
  1  2  1  0
  2  3  1  0
  3  4  1  6
  3  5  1  0
  5  6  1  6
  6  7  1  0
  7  8  2  0
  7  9  1  0
  9 10  1  6
 10 11  1  0
 11 12  2  0
 12 13  1  0
 13 14  2  0
 14 15  1  0
 14 16  1  0
 16 17  2  0
  9 18  1  0
 18 19  1  0
 19 20  2  0
 19 21  1  0
 21 22  1  6
 22 23  1  0
 23 24  1  0
 24 25  2  0
 24 26  1  0
 21 27  1  0
 27 28  1  0
 28 29  2  0
 28 30  1  0
 30 31  1  0
 31 32  1  6
 31 33  1  0
 33 34  1  0
 30 35  1  6
 35 36  1  0
 36 37  2  0
 36 38  1  0
 38 39  1  6
 39 40  1  0
 40 41  1  0
 41 42  2  0
 41 43  1  0
 38 44  1  0
 44 45  1  0
 45 46  2  0
 45 47  1  0
 47 48  1  6
 48 49  1  0
 49 50  2  0
 49 51  1  0
 47 52  1  0
 52 53  1  0
 53 54  2  0
 53 55  1  0
 55 56  1  6
 56 57  1  0
 57 58  1  0
 58 59  1  0
 59 60  1  0
 60 61  2  0
 60 62  1  0
 62 63  1  6
 63 64  1  0
 64 65  2  0
 65 66  1  0
 66 67  2  0
 67 68  1  0
 67 69  1  0
 69 70  2  0
 62 71  1  0
 71 72  1  0
 72 73  2  0
 72 74  1  0
 74 75  1  6
 75 76  1  0
 76 77  1  0
 77 78  2  0
 77 79  1  0
 74 80  1  0
 80 81  1  0
 81 82  2  0
 81 83  1  0
 83 84  1  6
 84 85  1  0
 85 86  1  0
 86 87  1  0
 86 88  2  0
 83 89  1  0
 89 90  1  0
 90 91  2  0
 90 92  1  0
 92 93  1  1
 93 94  1  0
 94 95  1  0
 94 96  2  0
 92 97  1  0
 97 98  1  0
 98 99  1  0
 99100  1  0
100101  1  0
101102  1  0
102103  2  0
102104  1  0
104105  1  0
105106  1  0
106107  1  1
107108  2  0
107109  1  0
109110  1  0
110111  1  6
111112  1  0
112113  1  0
113114  1  0
114115  1  0
110116  1  0
116117  1  0
116118  2  0
106119  1  0
119120  1  0
120121  2  0
120  5  1  0
 17 11  1  0
 59 55  1  0
 70 64  1  0
M  END
>  <Molecule ChEMBL ID>  (90) 
CHEMBL4071072

>  <Smiles>  (90) 
CC[C@H](C)[C@@H]1NC(=O)[C@H](Cc2ccc(O)cc2)NC(=O)[C@H](CCC(=O)O)NC(=O)[C@H]([C@@H](C)CC)NC(=O)[C@H](CCC(=O)O)NC(=O)[C@H](CC(=O)O)NC(=O)[C@@H]2CCCN2C(=O)[C@H](Cc2ccc(O)cc2)NC(=O)[C@H](CCC(=O)O)NC(=O)[C@H](CCC(N)=O)NC(=O)[C@@H](NC(C)=O)CCCCNC(=O)CC[C@@H](C(=O)N[C@@H](CCCCN)C(N)=O)NC1=O

>  <pChEMBL Value>  (90) 
4.12

>  <similarity>  (90) 
0.06993006993006994

$$$$

     RDKit          2D

 29 33  0  0  0  0  0  0  0  0999 V2000
   -5.5537  -10.0211    0.0000 N   0  0  0  0  0  0  0  0  0  0  0  0
   -5.5537   -8.5211    0.0000 C   0  0  0  0  0  0  0  0  0  0  0  0
   -6.8527   -7.7711    0.0000 N   0  0  0  0  0  0  0  0  0  0  0  0
   -6.8527   -6.2711    0.0000 C   0  0  0  0  0  0  0  0  0  0  0  0
   -8.1517   -5.5211    0.0000 N   0  0  0  0  0  0  0  0  0  0  0  0
   -9.4508   -6.2711    0.0000 C   0  0  0  0  0  0  0  0  0  0  0  0
  -10.7498   -5.5211    0.0000 C   0  0  0  0  0  0  0  0  0  0  0  0
  -12.0488   -6.2711    0.0000 C   0  0  0  0  0  0  0  0  0  0  0  0
  -12.0488   -7.7711    0.0000 C   0  0  0  0  0  0  0  0  0  0  0  0
  -10.7498   -8.5211    0.0000 C   0  0  0  0  0  0  0  0  0  0  0  0
  -10.7498  -10.0211    0.0000 Br  0  0  0  0  0  0  0  0  0  0  0  0
   -9.4508   -7.7711    0.0000 C   0  0  0  0  0  0  0  0  0  0  0  0
   -5.5537   -5.5211    0.0000 C   0  0  0  0  0  0  0  0  0  0  0  0
   -5.2418   -4.0539    0.0000 C   0  0  0  0  0  0  0  0  0  0  0  0
   -3.7500   -3.8971    0.0000 C   0  0  0  0  0  0  0  0  0  0  0  0
   -3.0000   -2.5981    0.0000 C   0  0  0  0  0  0  0  0  0  0  0  0
   -1.5000   -2.5981    0.0000 C   0  0  0  0  0  0  0  0  0  0  0  0
   -0.7500   -3.8971    0.0000 C   0  0  0  0  0  0  0  0  0  0  0  0
    0.7500   -3.8971    0.0000 C   0  0  0  0  0  0  0  0  0  0  0  0
    1.5000   -2.5981    0.0000 C   0  0  0  0  0  0  0  0  0  0  0  0
    0.7500   -1.2990    0.0000 C   0  0  0  0  0  0  0  0  0  0  0  0
    1.5000    0.0000    0.0000 C   0  0  0  0  0  0  0  0  0  0  0  0
    0.7500    1.2990    0.0000 C   0  0  0  0  0  0  0  0  0  0  0  0
   -0.7500    1.2990    0.0000 C   0  0  0  0  0  0  0  0  0  0  0  0
   -1.5000    0.0000    0.0000 C   0  0  0  0  0  0  0  0  0  0  0  0
   -0.7500   -1.2990    0.0000 C   0  0  0  0  0  0  0  0  0  0  0  0
   -3.1399   -5.2674    0.0000 N   0  0  0  0  0  0  0  0  0  0  0  0
   -4.2546   -6.2711    0.0000 C   0  0  0  0  0  0  0  0  0  0  0  0
   -4.2546   -7.7711    0.0000 N   0  0  0  0  0  0  0  0  0  0  0  0
  1  2  1  0
  2  3  2  0
  3  4  1  0
  4  5  1  0
  5  6  1  0
  6  7  2  0
  7  8  1  0
  8  9  2  0
  9 10  1  0
 10 11  1  0
 10 12  2  0
  4 13  2  0
 13 14  1  0
 14 15  2  0
 15 16  1  0
 16 17  1  0
 17 18  2  0
 18 19  1  0
 19 20  2  0
 20 21  1  0
 21 22  2  0
 22 23  1  0
 23 24  2  0
 24 25  1  0
 25 26  2  0
 15 27  1  0
 27 28  1  0
 28 29  2  0
 29  2  1  0
 12  6  1  0
 28 13  1  0
 26 17  1  0
 26 21  1  0
M  END
>  <Molecule ChEMBL ID>  (91) 
CHEMBL474538

>  <Smiles>  (91) 
Nc1nc(Nc2cccc(Br)c2)c2cc(Cc3cccc4ccccc34)[nH]c2n1

>  <pChEMBL Value>  (91) 
4.72

>  <similarity>  (91) 
0.13580246913580246

$$$$

     RDKit          2D

 23 25  0  0  0  0  0  0  0  0999 V2000
    3.0000   -5.1962    0.0000 C   0  0  0  0  0  0  0  0  0  0  0  0
    1.5000   -5.1962    0.0000 O   0  0  0  0  0  0  0  0  0  0  0  0
    0.7500   -3.8971    0.0000 C   0  0  0  0  0  0  0  0  0  0  0  0
    1.5000   -2.5981    0.0000 C   0  0  0  0  0  0  0  0  0  0  0  0
    0.7500   -1.2990    0.0000 C   0  0  0  0  0  0  0  0  0  0  0  0
    1.5000    0.0000    0.0000 N   0  0  0  0  0  0  0  0  0  0  0  0
    0.7500    1.2990    0.0000 C   0  0  0  0  0  0  0  0  0  0  0  0
   -0.7500    1.2990    0.0000 N   0  0  0  0  0  0  0  0  0  0  0  0
   -1.5000    0.0000    0.0000 C   0  0  0  0  0  0  0  0  0  0  0  0
   -3.0000    0.0000    0.0000 N   0  0  0  0  0  0  0  0  0  0  0  0
   -3.7500    1.2990    0.0000 C   0  0  0  0  0  0  0  0  0  0  0  0
   -3.0000    2.5981    0.0000 C   0  0  0  0  0  0  0  0  0  0  0  0
   -3.7500    3.8971    0.0000 C   0  0  0  0  0  0  0  0  0  0  0  0
   -5.2500    3.8971    0.0000 C   0  0  0  0  0  0  0  0  0  0  0  0
   -6.0000    5.1962    0.0000 Cl  0  0  0  0  0  0  0  0  0  0  0  0
   -6.0000    2.5981    0.0000 C   0  0  0  0  0  0  0  0  0  0  0  0
   -5.2500    1.2990    0.0000 C   0  0  0  0  0  0  0  0  0  0  0  0
   -6.0000    0.0000    0.0000 F   0  0  0  0  0  0  0  0  0  0  0  0
   -0.7500   -1.2990    0.0000 C   0  0  0  0  0  0  0  0  0  0  0  0
   -1.5000   -2.5981    0.0000 C   0  0  0  0  0  0  0  0  0  0  0  0
   -0.7500   -3.8971    0.0000 C   0  0  0  0  0  0  0  0  0  0  0  0
   -1.5000   -5.1962    0.0000 O   0  0  0  0  0  0  0  0  0  0  0  0
   -3.0000   -5.1962    0.0000 C   0  0  0  0  0  0  0  0  0  0  0  0
  1  2  1  0
  2  3  1  0
  3  4  2  0
  4  5  1  0
  5  6  2  0
  6  7  1  0
  7  8  2  0
  8  9  1  0
  9 10  1  0
 10 11  1  0
 11 12  2  0
 12 13  1  0
 13 14  2  0
 14 15  1  0
 14 16  1  0
 16 17  2  0
 17 18  1  0
  9 19  2  0
 19 20  1  0
 20 21  2  0
 21 22  1  0
 22 23  1  0
 21  3  1  0
 19  5  1  0
 17 11  1  0
M  END
>  <Molecule ChEMBL ID>  (92) 
CHEMBL150315

>  <Smiles>  (92) 
COc1cc2ncnc(Nc3ccc(Cl)cc3F)c2cc1OC

>  <pChEMBL Value>  (92) 
4.85

>  <similarity>  (92) 
0.1038961038961039

$$$$

     RDKit          2D

 71 73  0  0  0  0  0  0  0  0999 V2000
    9.9722   -1.2990    0.0000 C   0  0  0  0  0  0  0  0  0  0  0  0
    8.4722   -1.2990    0.0000 C   0  0  0  0  0  0  0  0  0  0  0  0
    7.7222   -2.5981    0.0000 C   0  0  0  0  0  0  0  0  0  0  0  0
    7.7222    0.0000    0.0000 C   0  0  0  0  0  0  0  0  0  0  0  0
    6.2222    0.0000    0.0000 C   0  0  0  0  0  0  0  0  0  0  0  0
    6.0414   -1.4891    0.0000 N   0  0  0  0  0  0  0  0  0  0  0  0
    5.5095   -2.8916    0.0000 C   0  0  0  0  0  0  0  0  0  0  0  0
    6.8376   -3.5887    0.0000 O   0  0  0  0  0  0  0  0  0  0  0  0
    4.6574   -4.1261    0.0000 C   0  0  0  0  0  0  0  0  0  0  0  0
    3.5346   -5.1207    0.0000 N   0  0  0  0  0  0  0  0  0  0  0  0
    2.2064   -5.8178    0.0000 C   0  0  0  0  0  0  0  0  0  0  0  0
    2.7383   -7.2204    0.0000 O   0  0  0  0  0  0  0  0  0  0  0  0
    0.7500   -6.1768    0.0000 C   0  0  0  0  0  0  0  0  0  0  0  0
    0.9308   -7.6659    0.0000 C   0  0  0  0  0  0  0  0  0  0  0  0
   -0.2684   -8.5670    0.0000 C   0  0  0  0  0  0  0  0  0  0  0  0
   -0.0876  -10.0560    0.0000 C   0  0  0  0  0  0  0  0  0  0  0  0
    1.2924  -10.6440    0.0000 O   0  0  0  0  0  0  0  0  0  0  0  0
   -1.2867  -10.9572    0.0000 O   0  0  0  0  0  0  0  0  0  0  0  0
   -0.7500   -6.1768    0.0000 N   0  0  0  0  0  0  0  0  0  0  0  0
   -2.2064   -5.8178    0.0000 C   0  0  0  0  0  0  0  0  0  0  0  0
   -2.7383   -7.2204    0.0000 O   0  0  0  0  0  0  0  0  0  0  0  0
   -3.5346   -5.1207    0.0000 C   0  0  0  0  0  0  0  0  0  0  0  0
   -4.3867   -6.3552    0.0000 C   0  0  0  0  0  0  0  0  0  0  0  0
   -5.8818   -6.2345    0.0000 C   0  0  0  0  0  0  0  0  0  0  0  0
   -6.5249   -4.8793    0.0000 O   0  0  0  0  0  0  0  0  0  0  0  0
   -6.7339   -7.4690    0.0000 O   0  0  0  0  0  0  0  0  0  0  0  0
   -4.6574   -4.1261    0.0000 N   0  0  0  0  0  0  0  0  0  0  0  0
   -5.5095   -2.8916    0.0000 C   0  0  0  0  0  0  0  0  0  0  0  0
   -6.8376   -3.5887    0.0000 O   0  0  0  0  0  0  0  0  0  0  0  0
   -6.0414   -1.4891    0.0000 C   0  0  0  0  0  0  0  0  0  0  0  0
   -7.4978   -1.8480    0.0000 C   0  0  0  0  0  0  0  0  0  0  0  0
   -8.5369   -0.7662    0.0000 C   0  0  0  0  0  0  0  0  0  0  0  0
   -8.1195    0.6745    0.0000 C   0  0  0  0  0  0  0  0  0  0  0  0
   -9.1586    1.7563    0.0000 C   0  0  0  0  0  0  0  0  0  0  0  0
  -10.6150    1.3974    0.0000 C   0  0  0  0  0  0  0  0  0  0  0  0
  -11.6541    2.4792    0.0000 O   0  0  0  0  0  0  0  0  0  0  0  0
  -11.0324   -0.0434    0.0000 C   0  0  0  0  0  0  0  0  0  0  0  0
   -9.9933   -1.1252    0.0000 C   0  0  0  0  0  0  0  0  0  0  0  0
   -6.2222    0.0000    0.0000 N   0  0  0  0  0  0  0  0  0  0  0  0
   -6.0414    1.4891    0.0000 C   0  0  0  0  0  0  0  0  0  0  0  0
   -7.4978    1.8480    0.0000 O   0  0  0  0  0  0  0  0  0  0  0  0
   -5.5095    2.8916    0.0000 C   0  0  0  0  0  0  0  0  0  0  0  0
   -6.8376    3.5887    0.0000 C   0  0  0  0  0  0  0  0  0  0  0  0
   -6.8980    5.0875    0.0000 C   0  0  0  0  0  0  0  0  0  0  0  0
   -5.6303    5.8892    0.0000 C   0  0  0  0  0  0  0  0  0  0  0  0
   -5.6907    7.3879    0.0000 C   0  0  0  0  0  0  0  0  0  0  0  0
   -7.0188    8.0850    0.0000 C   0  0  0  0  0  0  0  0  0  0  0  0
   -7.0792    9.5838    0.0000 O   0  0  0  0  0  0  0  0  0  0  0  0
   -8.2866    7.2833    0.0000 C   0  0  0  0  0  0  0  0  0  0  0  0
   -8.2262    5.7845    0.0000 C   0  0  0  0  0  0  0  0  0  0  0  0
   -4.6574    4.1261    0.0000 N   0  0  0  0  0  0  0  0  0  0  0  0
   -3.5346    5.1207    0.0000 C   0  0  0  0  0  0  0  0  0  0  0  0
   -4.3867    6.3552    0.0000 O   0  0  0  0  0  0  0  0  0  0  0  0
   -2.2064    5.8178    0.0000 C   0  0  0  0  0  0  0  0  0  0  0  0
   -0.7500    6.1768    0.0000 C   0  0  0  0  0  0  0  0  0  0  0  0
    0.7500    6.1768    0.0000 C   0  0  0  0  0  0  0  0  0  0  0  0
    0.9308    7.6659    0.0000 C   0  0  0  0  0  0  0  0  0  0  0  0
    2.3108    8.2538    0.0000 N   0  0  0  0  0  0  0  0  0  0  0  0
   -0.2684    8.5670    0.0000 O   0  0  0  0  0  0  0  0  0  0  0  0
    2.2064    5.8178    0.0000 N   0  0  0  0  0  0  0  0  0  0  0  0
    3.5346    5.1207    0.0000 C   0  0  0  0  0  0  0  0  0  0  0  0
    4.3867    6.3552    0.0000 O   0  0  0  0  0  0  0  0  0  0  0  0
    4.6574    4.1261    0.0000 C   0  0  0  0  0  0  0  0  0  0  0  0
    5.7801    5.1207    0.0000 C   0  0  0  0  0  0  0  0  0  0  0  0
    7.2029    4.6457    0.0000 C   0  0  0  0  0  0  0  0  0  0  0  0
    8.3257    5.6404    0.0000 C   0  0  0  0  0  0  0  0  0  0  0  0
    8.0257    7.1101    0.0000 O   0  0  0  0  0  0  0  0  0  0  0  0
    9.7485    5.1654    0.0000 O   0  0  0  0  0  0  0  0  0  0  0  0
    5.5095    2.8916    0.0000 N   0  0  0  0  0  0  0  0  0  0  0  0
    6.0414    1.4891    0.0000 C   0  0  0  0  0  0  0  0  0  0  0  0
    7.4978    1.8480    0.0000 O   0  0  0  0  0  0  0  0  0  0  0  0
  1  2  1  0
  2  3  1  0
  2  4  1  0
  5  4  1  6
  5  6  1  0
  6  7  1  0
  7  8  2  0
  7  9  1  0
  9 10  1  0
 10 11  1  0
 11 12  2  0
 11 13  1  0
 13 14  1  6
 14 15  1  0
 15 16  1  0
 16 17  2  0
 16 18  1  0
 13 19  1  0
 19 20  1  0
 20 21  2  0
 20 22  1  0
 22 23  1  6
 23 24  1  0
 24 25  2  0
 24 26  1  0
 22 27  1  0
 27 28  1  0
 28 29  2  0
 28 30  1  0
 30 31  1  6
 31 32  1  0
 32 33  2  0
 33 34  1  0
 34 35  2  0
 35 36  1  0
 35 37  1  0
 37 38  2  0
 30 39  1  0
 39 40  1  0
 40 41  2  0
 40 42  1  0
 42 43  1  6
 43 44  1  0
 44 45  2  0
 45 46  1  0
 46 47  2  0
 47 48  1  0
 47 49  1  0
 49 50  2  0
 42 51  1  0
 51 52  1  0
 52 53  2  0
 52 54  1  0
 54 55  1  0
 55 56  1  0
 56 57  1  1
 57 58  1  0
 57 59  2  0
 56 60  1  0
 60 61  1  0
 61 62  2  0
 61 63  1  0
 63 64  1  6
 64 65  1  0
 65 66  1  0
 66 67  2  0
 66 68  1  0
 63 69  1  0
 69 70  1  0
 70 71  2  0
 70  5  1  0
 38 32  1  0
 50 44  1  0
M  END
>  <Molecule ChEMBL ID>  (93) 
CHEMBL389147

>  <Smiles>  (93) 
CC(C)C[C@@H]1NC(=O)CNC(=O)[C@H](CCC(=O)O)NC(=O)[C@H](CC(=O)O)NC(=O)[C@H](Cc2ccc(O)cc2)NC(=O)[C@H](Cc2ccc(O)cc2)NC(=O)CC[C@@H](C(N)=O)NC(=O)[C@H](CCC(=O)O)NC1=O

>  <pChEMBL Value>  (93) 
4.4

>  <similarity>  (93) 
0.10101010101010101

$$$$

     RDKit          2D

 23 25  0  0  0  0  0  0  0  0999 V2000
    3.0000   -5.1962    0.0000 C   0  0  0  0  0  0  0  0  0  0  0  0
    1.5000   -5.1962    0.0000 O   0  0  0  0  0  0  0  0  0  0  0  0
    0.7500   -3.8971    0.0000 C   0  0  0  0  0  0  0  0  0  0  0  0
    1.5000   -2.5981    0.0000 C   0  0  0  0  0  0  0  0  0  0  0  0
    0.7500   -1.2990    0.0000 C   0  0  0  0  0  0  0  0  0  0  0  0
    1.5000    0.0000    0.0000 N   0  0  0  0  0  0  0  0  0  0  0  0
    0.7500    1.2990    0.0000 C   0  0  0  0  0  0  0  0  0  0  0  0
   -0.7500    1.2990    0.0000 N   0  0  0  0  0  0  0  0  0  0  0  0
   -1.5000    0.0000    0.0000 C   0  0  0  0  0  0  0  0  0  0  0  0
   -3.0000    0.0000    0.0000 N   0  0  0  0  0  0  0  0  0  0  0  0
   -3.7500    1.2990    0.0000 C   0  0  0  0  0  0  0  0  0  0  0  0
   -3.0000    2.5981    0.0000 C   0  0  0  0  0  0  0  0  0  0  0  0
   -3.7500    3.8971    0.0000 C   0  0  0  0  0  0  0  0  0  0  0  0
   -5.2500    3.8971    0.0000 C   0  0  0  0  0  0  0  0  0  0  0  0
   -6.0000    5.1962    0.0000 Cl  0  0  0  0  0  0  0  0  0  0  0  0
   -6.0000    2.5981    0.0000 C   0  0  0  0  0  0  0  0  0  0  0  0
   -5.2500    1.2990    0.0000 C   0  0  0  0  0  0  0  0  0  0  0  0
   -6.0000    0.0000    0.0000 F   0  0  0  0  0  0  0  0  0  0  0  0
   -0.7500   -1.2990    0.0000 C   0  0  0  0  0  0  0  0  0  0  0  0
   -1.5000   -2.5981    0.0000 C   0  0  0  0  0  0  0  0  0  0  0  0
   -0.7500   -3.8971    0.0000 C   0  0  0  0  0  0  0  0  0  0  0  0
   -1.5000   -5.1962    0.0000 O   0  0  0  0  0  0  0  0  0  0  0  0
   -3.0000   -5.1962    0.0000 C   0  0  0  0  0  0  0  0  0  0  0  0
  1  2  1  0
  2  3  1  0
  3  4  2  0
  4  5  1  0
  5  6  2  0
  6  7  1  0
  7  8  2  0
  8  9  1  0
  9 10  1  0
 10 11  1  0
 11 12  2  0
 12 13  1  0
 13 14  2  0
 14 15  1  0
 14 16  1  0
 16 17  2  0
 17 18  1  0
  9 19  2  0
 19 20  1  0
 20 21  2  0
 21 22  1  0
 22 23  1  0
 21  3  1  0
 19  5  1  0
 17 11  1  0
M  END
>  <Molecule ChEMBL ID>  (94) 
CHEMBL150315

>  <Smiles>  (94) 
COc1cc2ncnc(Nc3ccc(Cl)cc3F)c2cc1OC

>  <pChEMBL Value>  (94) 
4.85

>  <similarity>  (94) 
0.1038961038961039

$$$$
